Program Version,EnergyPlus-Linux-64 8.1.0.008, YMD=2016.12.02 15:29,IDD_Version 8.1.0.008
   ** Warning ** Sizing:Parameters: note Timesteps in Averaging Window entered value=[6] is less than 1 hour (i.e., 12 timesteps).
   ************* Beginning Zone Sizing Calculations
   ** Warning ** CheckUsedConstructions: There are 1 nominally unused constructions in input.
   **   ~~~   ** For explicit details on each unused construction, use Output:Diagnostics,DisplayExtraWarnings;
   ** Warning ** Calculated design heating load for zone=BASEMENT is zero.
   **   ~~~   ** Check Sizing:Zone and ZoneControl:Thermostat inputs.
   ** Warning ** Calculated design heating load for zone=CORE_BOTTOM is zero.
   **   ~~~   ** Check Sizing:Zone and ZoneControl:Thermostat inputs.
   ** Warning ** Calculated design heating load for zone=CORE_MID is zero.
   **   ~~~   ** Check Sizing:Zone and ZoneControl:Thermostat inputs.
   ************* Beginning System Sizing Calculations
   ************* Beginning Plant Sizing Calculations
   ** Warning ** The design coil load is zero for Coil:Heating:Water BASEMENT VAV BOX REHEAT COIL
   **   ~~~   ** The autosize value for maximum water flow rate is zero
   **   ~~~   ** To change this, input a value for UA, change the heating design day, or lower
   **   ~~~   **   the system heating design supply air temperature
   ** Warning ** The design coil load is zero for Coil:Heating:Water CORE_BOTTOM VAV BOX REHEAT COIL
   **   ~~~   ** The autosize value for maximum water flow rate is zero
   **   ~~~   ** To change this, input a value for UA, change the heating design day, or lower
   **   ~~~   **   the system heating design supply air temperature
   ** Warning ** The design coil load is zero for Coil:Heating:Water CORE_MID VAV BOX REHEAT COIL
   **   ~~~   ** The autosize value for maximum water flow rate is zero
   **   ~~~   ** To change this, input a value for UA, change the heating design day, or lower
   **   ~~~   **   the system heating design supply air temperature
   ************* Testing Individual Branch Integrity
   ************* All Branches passed integrity testing
   ************* Testing Individual Supply Air Path Integrity
   ************* All Supply Air Paths passed integrity testing
   ************* Testing Individual Return Air Path Integrity
   ************* All Return Air Paths passed integrity testing
   ************* No node connection errors were found.
   ************* Beginning Simulation
   ** Severe  ** ExternalInterface: Socket communication received error value " 1" at time = 24.00 hours.
   **   ~~~   ** ExternalInterface: Flag from server " 1".
   **  Fatal  ** Error in ExternalInterface: Check EnergyPlus *.err file.
   ...Summary of Errors that led to program termination:
   ..... Reference severe error count=1
   ..... Last severe error=ExternalInterface: Socket communication received error value " 1" at time = 24.00 hours.
   *************
   ************* ===== Final Error Summary =====
   ************* The following error categories occurred.  Consider correcting or noting.
   ************* Nominally Unused Constructions
   ************* ..The nominally unused constructions warning is provided to alert you to potential conditions that can cause
   ************* ..extra time during simulation. Each construction is calculated by the algorithm indicated in the HeatBalanceAlgorithm
   ************* ..object. You may remove the constructions indicated (when you use the DisplayExtraWarnings option).
   *************
   ************* EnergyPlus Warmup Error Summary. During Warmup: 0 Warning; 0 Severe Errors.
   ************* EnergyPlus Sizing Error Summary. During Sizing: 5 Warning; 0 Severe Errors.
   ************* EnergyPlus Terminated--Fatal Error Detected. 8 Warning; 1 Severe Errors; Elapsed Time=00hr 00min 11.95sec
