  Processing Data Dictionary (Energy+.idd) File -- Complete
  Maximum number of Alpha Args=        4500
  Maximum number of Numeric Args=       21040
  Number of Object Definitions=         727
  Number of Section Definitions=           2
  Total Number of Alpha Fields=       17233
  Total Number of Numeric Fields=       39169
  Total Number of Fields=       56402
  Processing Input Data File (in.idf) -- Start
      1 ! This file is obsolete, because it does not define external interface with MLE+
      2 ! This file should not be used to generate normal (non-DR) load.
      3 ! The instrumented IDF file in ../capacity and the .M files there should be used.
      4 ! In particular, run_normalLoad.m should be used.
      5 
      6 !-Generator IDFEditor 1.42
      7 !-Option OriginalOrderTop UseSpecialFormat
      8 !-NOTE: All comments with '!-' are ignored by the IDFEditor and are generated automatically.
      9 !-      Use '!' comments if they need to be retained when using the IDFEditor.
     10 ! RefBldgLargeOfficeNew2004_Chicago.idf
     11 !
     12 ! This example file is based on Version 1.3_5.0 and was transitioned to Version 6.0 using the transition utility
     13 !
     14 ! DOE Commercial Reference Building
     15 ! Large office, new construction 90.1-2004
     16 ! Version 1.3_5.0
     17 ! EnergyPlus Version 6.0
     18 ! ASHRAE Standards 90.1-2004 and 62-1999
     19 !
     20 ! Description:  12 story plus basement, office building.
     21 ! Form:         Area = 46,320 m2 (498,588 ft2); Number of Stories = 12; Shape = rectangle, Aspect ratio = 1.5
     22 ! Envelope:     Envelope thermal properties vary with climate according to ASHRAE Standard 90.1-2004.
     23 !               Opaque constructions: mass walls; built-up flat roof (insulation above deck); slab-on-grade floor
     24 !               Windows: window-to-wall ratio = 38.0%, equal distribution of windows
     25 !               Infiltration in perimeter zones only
     26 !                            = 0.4 cfm/ft2 above grade wall area at 0.3 in wc (75 Pa) adjusted to 0.016 in wc (4 Pa).
     27 !                              25% of full value when ventilation system on.
     28 ! HVAC:         2 water-cooled chillers, VAV with reheat and plenum zones
     29 !               Economizer per 90.1-2004
     30 !               Chiller part load curve corrected from original
     31 !
     32 ! Int. gains:   lights = 10.76 W/m2 (1.0 W/ft2) (building area method);
     33 !               elec. plug loads = 10.76 W/m2 (1.0 W/ft2)
     34 !               gas plug load = 0 W/m2 (0 W/ft2)
     35 !               people = 2,397 total, 5.38/100 m2 (5.0/1000 ft2); basement 2.69/100 m2 (2.5/1000 ft2)
     36 !               elevators = 12 @ 25 HP each, 91% motor efficiency, motor heat exhausted directly
     37 !
     38 ! Detached Shading:               None
     39 ! Daylight:                       None
     40 ! Natural Ventilation:            None
     41 ! Zonal Equipment:                None
     42 ! Air Primary Loops:              VAV WITH REHEAT
     43 ! Plant Loops:                    SHWSys1, HeatSys1, CoolSys1, TowerWaterSys
     44 ! System Equipment Autosize:      Yes
     45 ! Purchased Cooling:              None
     46 ! Purchased Heating:              None
     47 ! Coils:                          Coil:Cooling:Water; Coil:Heating:Water
     48 ! Pumps:                          Yes
     49 ! Boilers:                        Boiler:HotWater (gas-fired)
     50 ! Chillers:                       Chiller:Electric:ReformulatedEIR (water-cooled)
     51 !***** NOTICE *****
     52 !***** The Reference Buildings were prepared as an account of work sponsored by an *****
     53 !***** agency of the United States government. Neither the United States *****
     54 !***** government nor any agency thereof, nor any of their employees, makes *****
     55 !***** any warranty, express or implied, or assumes any legal liability or *****
     56 !***** responsibility for the accuracy, completeness, or usefulness of any *****
     57 !***** information, apparatus, product, or process disclosed, or represents *****
     58 !***** that its use would not infringe privately owned rights. Reference *****
     59 !***** herein to any specific commercial product, process, or service by *****
     60 !***** trade name, trademark, manufacturer, or otherwise does not necessarily *****
     61 !***** constitute or imply its endorsement, recommendation, or favoring by *****
     62 !***** the United States government or any agency thereof. The views and *****
     63 !***** opinions of authors expressed herein do not necessarily state or *****
     64 !***** reflect those of the United States government or any agency thereof. *****
     65 !***** Access to and use of the Reference Buildings imposes the following obligations *****
     66 !***** on the user. The user agrees to credit DOE, NREL, PNNL, and LBNL in *****
     67 !***** any publication(s) that that result from the use of Reference Buildings. *****
     68 !***** However, the names of DOE/NREL/PNNL/LBNL may not be used in any *****
     69 !***** advertising or publicity that implies endorsement or promotion of any *****
     70 !***** products, services or commercial entities. *****
     71 ! Reference citation for the Commercial Reference Buildings:
     72 ! Deru, M.; Field, K.; Studer, D.; Benne, K.; Griffith, B.; Torcellini, P;
     73 ! Halverson, M.; Winiarski, D.; Liu, B.; Rosenberg, M.; Huang, J.;
     74 ! Yazdanian, M.; Crawley, D. (2010).
     75 ! U.S. Department of Energy Commercial Reference Building Models of the National Building Stock.
     76 ! Washington, DC: U.S. Department of Energy, Energy Efficiency and
     77 ! Renewable Energy, Office of Building Technologies.
     78 ! ***GENERAL SIMULATION PARAMETERS***
     79 ! Number of Zones: 19
     80 
     81   Version,8.1;
     82 
     83   SimulationControl,
     84     YES,                     !- Do Zone Sizing Calculation
     85     YES,                     !- Do System Sizing Calculation
     86     YES,                     !- Do Plant Sizing Calculation
     87     NO,                     !- Run Simulation for Sizing Periods
     88     YES;                      !- Run Simulation for Weather File Run Periods
     89 
     90   Building,
     91     Ref Bldg Large Office New2004_v1.3_5.0,  !- Name
     92     0.0000,                  !- North Axis {deg}
     93     City,                    !- Terrain
     94     0.0400,                  !- Loads Convergence Tolerance Value
     95     0.2000,                  !- Temperature Convergence Tolerance Value {deltaC}
     96     FullInteriorAndExterior, !- Solar Distribution
     97     25,                      !- Maximum Number of Warmup Days
     98     6;                       !- Minimum Number of Warmup Days
     99 
    100   RunPeriod,
    101     ,                        !- Name
    102     7,                       !- Begin Month
    103     17,                       !- Begin Day of Month
    104     7,                       !- End Month
    105     17,                      !- End Day of Month
    106     Thursday,                !- Day of Week for Start Day 2012 Sun 2013 Tue
    107     No,                      !- Use Weather File Holidays and Special Days
    108     No,                      !- Use Weather File Daylight Saving Period
    109     Yes,                      !- Apply Weekend Holiday Rule
    110     Yes,                     !- Use Weather File Rain Indicators
    111     Yes,                     !- Use Weather File Snow Indicators
    112     1.0000;                  !- Number of Times Runperiod to be Repeated
    113 
    114 ! ***HOLIDAYS & DAYLIGHT SAVINGS***
    115 
    116   RunPeriodControl:DaylightSavingTime,
    117     2nd Sunday in March,     !- Start Date
    118     1st Sunday in November;  !- End Date
    119 
    120   RunPeriodControl:SpecialDays,
    121     New Years Day,           !- Name
    122     January 1,               !- Start Date
    123     1,                       !- Duration {days}
    124     Holiday;                 !- Special Day Type
    125 
    126   RunPeriodControl:SpecialDays,
    127     Veterans Day,            !- Name
    128     November 11,             !- Start Date
    129     1,                       !- Duration {days}
    130     Holiday;                 !- Special Day Type
    131 
    132   RunPeriodControl:SpecialDays,
    133     Christmas,               !- Name
    134     December 25,             !- Start Date
    135     1,                       !- Duration {days}
    136     Holiday;                 !- Special Day Type
    137 
    138   RunPeriodControl:SpecialDays,
    139     Independence Day,        !- Name
    140     July 4,                  !- Start Date
    141     1,                       !- Duration {days}
    142     Holiday;                 !- Special Day Type
    143 
    144   RunPeriodControl:SpecialDays,
    145     MLK Day,                 !- Name
    146     3rd Monday in January,   !- Start Date
    147     1,                       !- Duration {days}
    148     Holiday;                 !- Special Day Type
    149 
    150   RunPeriodControl:SpecialDays,
    151     Presidents Day,          !- Name
    152     3rd Monday in February,  !- Start Date
    153     1,                       !- Duration {days}
    154     Holiday;                 !- Special Day Type
    155 
    156   RunPeriodControl:SpecialDays,
    157     Memorial Day,            !- Name
    158     Last Monday in May,      !- Start Date
    159     1,                       !- Duration {days}
    160     Holiday;                 !- Special Day Type
    161 
    162   RunPeriodControl:SpecialDays,
    163     Labor Day,               !- Name
    164     1st Monday in September, !- Start Date
    165     1,                       !- Duration {days}
    166     Holiday;                 !- Special Day Type
    167 
    168   RunPeriodControl:SpecialDays,
    169     Columbus Day,            !- Name
    170     2nd Monday in October,   !- Start Date
    171     1,                       !- Duration {days}
    172     Holiday;                 !- Special Day Type
    173 
    174   RunPeriodControl:SpecialDays,
    175     Thanksgiving,            !- Name
    176     4th Thursday in November,!- Start Date
    177     1,                       !- Duration {days}
    178     Holiday;                 !- Special Day Type
    179 
    180 ! ***SCHEDULE TYPES***
    181 
    182   ScheduleTypeLimits,
    183     Any Number;              !- Name
    184 
    185   ScheduleTypeLimits,
    186     Fraction,                !- Name
    187     0.0,                     !- Lower Limit Value
    188     1.0,                     !- Upper Limit Value
    189     CONTINUOUS;              !- Numeric Type
    190 
    191   ScheduleTypeLimits,
    192     Temperature,             !- Name
    193     -60,                     !- Lower Limit Value
    194     200,                     !- Upper Limit Value
    195     CONTINUOUS;              !- Numeric Type
    196 
    197   ScheduleTypeLimits,
    198     On/Off,                  !- Name
    199     0,                       !- Lower Limit Value
    200     1,                       !- Upper Limit Value
    201     DISCRETE;                !- Numeric Type
    202 
    203   ScheduleTypeLimits,
    204     Control Type,            !- Name
    205     0,                       !- Lower Limit Value
    206     4,                       !- Upper Limit Value
    207     DISCRETE;                !- Numeric Type
    208 
    209   ScheduleTypeLimits,
    210     Humidity,                !- Name
    211     10,                      !- Lower Limit Value
    212     90,                      !- Upper Limit Value
    213     CONTINUOUS;              !- Numeric Type
    214 
    215   ScheduleTypeLimits,
    216     Number;                  !- Name
    217 
    218 ! ***ALWAYS ON SCHEDULE***
    219 
    220   Schedule:Compact,
    221     ALWAYS_ON,               !- Name
    222     On/Off,                  !- Schedule Type Limits Name
    223     Through: 12/31,          !- Field 1
    224     For: AllDays,            !- Field 2
    225     Until: 24:00,1;          !- Field 3
    226 
    227  ExternalInterface,
    228     PtolemyServer;           !- Name of External Interface
    229 
    230 ! ***MISC SIMULATION PARAMETERS***
    231 
    232   SurfaceConvectionAlgorithm:Inside,TARP;
    233 
    234   SurfaceConvectionAlgorithm:Outside,DOE-2;
    235 
    236   HeatBalanceAlgorithm,ConductionTransferFunction,200.0000;
    237 
    238   ZoneAirHeatBalanceAlgorithm,
    239     AnalyticalSolution;      !- Algorithm
    240 
    241   Sizing:Parameters,
    242     1.33,                    !- Heating Sizing Factor
    243     1.33,                    !- Cooling Sizing Factor
    244     6;                       !- Timesteps in Averaging Window
    245 
    246   ConvergenceLimits,
    247     2,                       !- Minimum System Timestep {minutes}
    248     25;                      !- Maximum HVAC Iterations
    249 
    250   ShadowCalculation,
    251     AverageOverDaysInFrequency,  !- Calculation Method
    252     7,                       !- Calculation Frequency
    253     15000;                   !- Maximum Figures in Shadow Overlap Calculations
    254 
    255   Timestep,12;                !- Number of time steps in an hour
    256 
    257 ! WeatherFileName=USA_IL_Chicago-OHare_TMY2.epw
    258 
    259   Site:Location,
    260     USA IL-CHICAGO-OHARE,    !- Name
    261     41.77,                   !- Latitude {deg}
    262     -87.75,                  !- Longitude {deg}
    263     -6.00,                   !- Time Zone {hr}
    264     190;                     !- Elevation {m}
    265 
    266 ! CHICAGO_IL_USA Annual Heating 99.6%, MaxDB=-20.6°C
    267 
    268   SizingPeriod:DesignDay,
    269     CHICAGO Ann Htg 99.6% Condns DB,  !- Name
    270     1,                       !- Month
    271     21,                      !- Day of Month
    272     WinterDesignDay,         !- Day Type
    273     -20.6,                   !- Maximum Dry-Bulb Temperature {C}
    274     0.0,                     !- Daily Dry-Bulb Temperature Range {deltaC}
    275     ,                        !- Dry-Bulb Temperature Range Modifier Type
    276     ,                        !- Dry-Bulb Temperature Range Modifier Day Schedule Name
    277     Wetbulb,                 !- Humidity Condition Type
    278     -20.6,                   !- Wetbulb or DewPoint at Maximum Dry-Bulb {C}
    279     ,                        !- Humidity Condition Day Schedule Name
    280     ,                        !- Humidity Ratio at Maximum Dry-Bulb {kgWater/kgDryAir}
    281     ,                        !- Enthalpy at Maximum Dry-Bulb {J/kg}
    282     ,                        !- Daily Wet-Bulb Temperature Range {deltaC}
    283     99063.,                  !- Barometric Pressure {Pa}
    284     4.9,                     !- Wind Speed {m/s}
    285     270,                     !- Wind Direction {deg}
    286     No,                      !- Rain Indicator
    287     No,                      !- Snow Indicator
    288     No,                      !- Daylight Saving Time Indicator
    289     ASHRAEClearSky,          !- Solar Model Indicator
    290     ,                        !- Beam Solar Day Schedule Name
    291     ,                        !- Diffuse Solar Day Schedule Name
    292     ,                        !- ASHRAE Clear Sky Optical Depth for Beam Irradiance (taub) {dimensionless}
    293     ,                        !- ASHRAE Clear Sky Optical Depth for Diffuse Irradiance (taud) {dimensionless}
    294     0.00;                    !- Sky Clearness
    295 
    296 ! CHICAGO_IL_USA Annual Cooling (WB=>MDB) .4%, MDB=31.2°C WB=25.5°C
    297 
    298   SizingPeriod:DesignDay,
    299     CHICAGO Ann Clg .4% Condns WB=>MDB,  !- Name
    300     7,                       !- Month
    301     21,                      !- Day of Month
    302     SummerDesignDay,         !- Day Type
    303     31.2,                    !- Maximum Dry-Bulb Temperature {C}
    304     10.7,                    !- Daily Dry-Bulb Temperature Range {deltaC}
    305     ,                        !- Dry-Bulb Temperature Range Modifier Type
    306     ,                        !- Dry-Bulb Temperature Range Modifier Day Schedule Name
    307     Wetbulb,                 !- Humidity Condition Type
    308     25.5,                    !- Wetbulb or DewPoint at Maximum Dry-Bulb {C}
    309     ,                        !- Humidity Condition Day Schedule Name
    310     ,                        !- Humidity Ratio at Maximum Dry-Bulb {kgWater/kgDryAir}
    311     ,                        !- Enthalpy at Maximum Dry-Bulb {J/kg}
    312     ,                        !- Daily Wet-Bulb Temperature Range {deltaC}
    313     99063.,                  !- Barometric Pressure {Pa}
    314     5.3,                     !- Wind Speed {m/s}
    315     230,                     !- Wind Direction {deg}
    316     No,                      !- Rain Indicator
    317     No,                      !- Snow Indicator
    318     No,                      !- Daylight Saving Time Indicator
    319     ASHRAEClearSky,          !- Solar Model Indicator
    320     ,                        !- Beam Solar Day Schedule Name
    321     ,                        !- Diffuse Solar Day Schedule Name
    322     ,                        !- ASHRAE Clear Sky Optical Depth for Beam Irradiance (taub) {dimensionless}
    323     ,                        !- ASHRAE Clear Sky Optical Depth for Diffuse Irradiance (taud) {dimensionless}
    324     1.00;                    !- Sky Clearness
    325 
    326   Site:WaterMainsTemperature,
    327     CORRELATION,             !- Calculation Method
    328     ,                        !- Temperature Schedule Name
    329     9.69,                    !- Annual Average Outdoor Air Temperature {C}
    330     28.10;                   !- Maximum Difference In Monthly Average Outdoor Air Temperatures {deltaC}
    331 
    332   Site:GroundTemperature:BuildingSurface,19.527,19.502,19.536,19.598,20.002,21.640,22.225,22.375,21.449,20.121,19.802,19.633;
    333 
    334 ! ***OPAQUE CONSTRUCTIONS AND MATERIALS***
    335 ! Exterior Walls
    336 
    337   Construction,
    338     Mass Non-res Ext Wall,   !- Name
    339     1IN Stucco,              !- Outside Layer
    340     8IN Concrete HW,         !- Layer 2
    341     Mass NonRes Wall Insulation,  !- Layer 3
    342     1/2IN Gypsum;            !- Layer 4
    343 
    344   Material,
    345     Mass NonRes Wall Insulation,  !- Name
    346     MediumRough,             !- Roughness
    347     0.0495494599433393,      !- Thickness {m}
    348     0.049,                   !- Conductivity {W/m-K}
    349     265.0000,                !- Density {kg/m3}
    350     836.8000,                !- Specific Heat {J/kg-K}
    351     0.9000,                  !- Thermal Absorptance
    352     0.7000,                  !- Solar Absorptance
    353     0.7000;                  !- Visible Absorptance
    354 
    355 ! Roof
    356 
    357   Construction,
    358     IEAD Non-res Roof,       !- Name
    359     Roof Membrane,           !- Outside Layer
    360     IEAD NonRes Roof Insulation,  !- Layer 2
    361     Metal Decking;           !- Layer 3
    362 
    363   Material,
    364     IEAD NonRes Roof Insulation,  !- Name
    365     MediumRough,             !- Roughness
    366     0.127338688569477,       !- Thickness {m}
    367     0.049,                   !- Conductivity {W/m-K}
    368     265.0000,                !- Density {kg/m3}
    369     836.8000,                !- Specific Heat {J/kg-K}
    370     0.9000,                  !- Thermal Absorptance
    371     0.7000,                  !- Solar Absorptance
    372     0.7000;                  !- Visible Absorptance
    373 
    374 ! Slab on grade, unheated
    375 
    376   Construction,
    377     ext-slab,                !- Name
    378     HW CONCRETE,             !- Outside Layer
    379     CP02 CARPET PAD;         !- Layer 2
    380 
    381 ! Interior Walls
    382 
    383   Construction,
    384     int-walls,               !- Name
    385     1/2IN Gypsum,            !- Outside Layer
    386     1/2IN Gypsum;            !- Layer 2
    387 
    388 ! Interior Floors
    389 
    390   Construction,
    391     INT-FLOOR-TOPSIDE,       !- Name
    392     MAT-CC05 4 HW CONCRETE,  !- Outside Layer
    393     CP02 CARPET PAD;         !- Layer 2
    394 
    395   Construction,
    396     INT-FLOOR-UNDERSIDE,     !- Name
    397     CP02 CARPET PAD,         !- Outside Layer
    398     MAT-CC05 4 HW CONCRETE;  !- Layer 2
    399 
    400   Construction,
    401     Underground Wall Non-res,!- Name
    402     8IN Concrete HW,         !- Outside Layer
    403     UGWall NonRes Insulation;!- Layer 2
    404 
    405   Material,
    406     UGWall NonRes Insulation,!- Name
    407     MediumRough,             !- Roughness
    408     0.0001,                  !- Thickness {m}
    409     0.049,                   !- Conductivity {W/m-K}
    410     265.0000,                !- Density {kg/m3}
    411     836.8000,                !- Specific Heat {J/kg-K}
    412     0.9000,                  !- Thermal Absorptance
    413     0.7000,                  !- Solar Absorptance
    414     0.7000;                  !- Visible Absorptance
    415 
    416 ! ***WINDOW/DOOR CONSTRUCTIONS AND MATERIALS***
    417 
    418   Construction,
    419     Window Non-res Fixed,    !- Name
    420     NonRes Fixed Assembly Window;  !- Outside Layer
    421 
    422   WindowMaterial:SimpleGlazingSystem,
    423     NonRes Fixed Assembly Window,  !- Name
    424     3.23646,                 !- U-Factor {W/m2-K}
    425     0.39;                    !- Solar Heat Gain Coefficient
    426 
    427 ! ***COMMON CONSTRUCTIONS AND MATERIALS***
    428 
    429   Construction,
    430     DropCeiling,             !- Name
    431     Std AC02;                !- Outside Layer
    432 
    433   Construction,
    434     AIR-WALL,                !- Name
    435     MAT-AIR-WALL;            !- Outside Layer
    436 
    437   Construction,
    438     InteriorFurnishings,     !- Name
    439     Std Wood 6inch;          !- Outside Layer
    440 
    441   Material,
    442     Std Wood 6inch,          !- Name
    443     MediumSmooth,            !- Roughness
    444     0.15,                    !- Thickness {m}
    445     0.12,                    !- Conductivity {W/m-K}
    446     540.0000,                !- Density {kg/m3}
    447     1210,                    !- Specific Heat {J/kg-K}
    448     0.9000000,               !- Thermal Absorptance
    449     0.7000000,               !- Solar Absorptance
    450     0.7000000;               !- Visible Absorptance
    451 
    452   Material,
    453     Wood Siding,             !- Name
    454     MediumSmooth,            !- Roughness
    455     0.0100,                  !- Thickness {m}
    456     0.1100,                  !- Conductivity {W/m-K}
    457     544.6200,                !- Density {kg/m3}
    458     1210.0000,               !- Specific Heat {J/kg-K}
    459     0.9000,                  !- Thermal Absorptance
    460     0.7800,                  !- Solar Absorptance
    461     0.7800;                  !- Visible Absorptance
    462 
    463   Material,
    464     1/2IN Gypsum,            !- Name
    465     Smooth,                  !- Roughness
    466     0.0127,                  !- Thickness {m}
    467     0.1600,                  !- Conductivity {W/m-K}
    468     784.9000,                !- Density {kg/m3}
    469     830.0000,                !- Specific Heat {J/kg-K}
    470     0.9000,                  !- Thermal Absorptance
    471     0.9200,                  !- Solar Absorptance
    472     0.9200;                  !- Visible Absorptance
    473 
    474   Material,
    475     1IN Stucco,              !- Name
    476     Smooth,                  !- Roughness
    477     0.0253,                  !- Thickness {m}
    478     0.6918,                  !- Conductivity {W/m-K}
    479     1858.0000,               !- Density {kg/m3}
    480     837.0000,                !- Specific Heat {J/kg-K}
    481     0.9000,                  !- Thermal Absorptance
    482     0.9200,                  !- Solar Absorptance
    483     0.9200;                  !- Visible Absorptance
    484 
    485   Material,
    486     8IN CONCRETE HW,         !- Name
    487     Rough,                   !- Roughness
    488     0.2032,                  !- Thickness {m}
    489     1.3110,                  !- Conductivity {W/m-K}
    490     2240.0000,               !- Density {kg/m3}
    491     836.8000,                !- Specific Heat {J/kg-K}
    492     0.9000,                  !- Thermal Absorptance
    493     0.7000,                  !- Solar Absorptance
    494     0.7000;                  !- Visible Absorptance
    495 
    496   Material,
    497     Metal Siding,            !- Name
    498     Smooth,                  !- Roughness
    499     0.0015,                  !- Thickness {m}
    500     44.9600,                 !- Conductivity {W/m-K}
    501     7688.8600,               !- Density {kg/m3}
    502     410.0000,                !- Specific Heat {J/kg-K}
    503     0.9000,                  !- Thermal Absorptance
    504     0.2000,                  !- Solar Absorptance
    505     0.2000;                  !- Visible Absorptance
    506 
    507   Material,
    508     HW CONCRETE,             !- Name
    509     Rough,                   !- Roughness
    510     0.1016,                  !- Thickness {m}
    511     1.3110,                  !- Conductivity {W/m-K}
    512     2240.0000,               !- Density {kg/m3}
    513     836.8000,                !- Specific Heat {J/kg-K}
    514     0.9000,                  !- Thermal Absorptance
    515     0.7000,                  !- Solar Absorptance
    516     0.7000;                  !- Visible Absorptance
    517 
    518   Material:NoMass,
    519     CP02 CARPET PAD,         !- Name
    520     VeryRough,               !- Roughness
    521     0.2165,                  !- Thermal Resistance {m2-K/W}
    522     0.9000,                  !- Thermal Absorptance
    523     0.7000,                  !- Solar Absorptance
    524     0.8000;                  !- Visible Absorptance
    525 
    526   Material,
    527     Roof Membrane,           !- Name
    528     VeryRough,               !- Roughness
    529     0.0095,                  !- Thickness {m}
    530     0.1600,                  !- Conductivity {W/m-K}
    531     1121.2900,               !- Density {kg/m3}
    532     1460.0000,               !- Specific Heat {J/kg-K}
    533     0.9000,                  !- Thermal Absorptance
    534     0.7000,                  !- Solar Absorptance
    535     0.7000;                  !- Visible Absorptance
    536 
    537   Material,
    538     Metal Decking,           !- Name
    539     MediumSmooth,            !- Roughness
    540     0.0015,                  !- Thickness {m}
    541     45.0060,                 !- Conductivity {W/m-K}
    542     7680.0000,               !- Density {kg/m3}
    543     418.4000,                !- Specific Heat {J/kg-K}
    544     0.9000,                  !- Thermal Absorptance
    545     0.7000,                  !- Solar Absorptance
    546     0.3000;                  !- Visible Absorptance
    547 
    548   Material,
    549     Metal Roofing,           !- Name
    550     MediumSmooth,            !- Roughness
    551     0.0015,                  !- Thickness {m}
    552     45.0060,                 !- Conductivity {W/m-K}
    553     7680.0000,               !- Density {kg/m3}
    554     418.4000,                !- Specific Heat {J/kg-K}
    555     0.9000,                  !- Thermal Absorptance
    556     0.7000,                  !- Solar Absorptance
    557     0.3000;                  !- Visible Absorptance
    558 
    559   Material,
    560     MAT-CC05 4 HW CONCRETE,  !- Name
    561     Rough,                   !- Roughness
    562     0.1016,                  !- Thickness {m}
    563     1.3110,                  !- Conductivity {W/m-K}
    564     2240.0000,               !- Density {kg/m3}
    565     836.8000,                !- Specific Heat {J/kg-K}
    566     0.9000,                  !- Thermal Absorptance
    567     0.7000,                  !- Solar Absorptance
    568     0.7000;                  !- Visible Absorptance
    569 
    570 ! Acoustic tile for drop ceiling
    571 
    572   Material,
    573     Std AC02,                !- Name
    574     MediumSmooth,            !- Roughness
    575     1.2700000E-02,           !- Thickness {m}
    576     5.7000000E-02,           !- Conductivity {W/m-K}
    577     288.0000,                !- Density {kg/m3}
    578     1339.000,                !- Specific Heat {J/kg-K}
    579     0.9000000,               !- Thermal Absorptance
    580     0.7000000,               !- Solar Absorptance
    581     0.2000000;               !- Visible Absorptance
    582 
    583   Material:NoMass,
    584     MAT-AIR-WALL,            !- Name
    585     Rough,                   !- Roughness
    586     0.2079491,               !- Thermal Resistance {m2-K/W}
    587     0.9,                     !- Thermal Absorptance
    588     0.7;                     !- Solar Absorptance
    589 
    590 ! ZONE LIST:
    591 ! Basement
    592 ! Core_bottom
    593 ! Core_mid (mult=10)
    594 ! Core_top
    595 ! GroundFloor_Plenum
    596 ! MidFloor_Plenum (mult=10)
    597 ! Perimeter_bot_ZN_1
    598 ! Perimeter_bot_ZN_2
    599 ! Perimeter_bot_ZN_3
    600 ! Perimeter_bot_ZN_4
    601 ! Perimeter_mid_ZN_1 (mult=10)
    602 ! Perimeter_mid_ZN_2 (mult=10)
    603 ! Perimeter_mid_ZN_3 (mult=10)
    604 ! Perimeter_mid_ZN_4 (mult=10)
    605 ! Perimeter_top_ZN_1
    606 ! Perimeter_top_ZN_2
    607 ! Perimeter_top_ZN_3
    608 ! Perimeter_top_ZN_4
    609 ! TopFloor_Plenum
    610 ! ***ZONES***
    611 
    612   Zone,
    613     Basement,                !- Name
    614     0.0000,                  !- Direction of Relative North {deg}
    615     0.0000,                  !- X Origin {m}
    616     0.0400,                  !- Y Origin {m}
    617     0.2000,                  !- Z Origin {m}
    618     1,                       !- Type
    619     1,                       !- Multiplier
    620     ,                        !- Ceiling Height {m}
    621     ,                        !- Volume {m3}
    622     autocalculate,           !- Floor Area {m2}
    623     ,                        !- Zone Inside Convection Algorithm
    624     ,                        !- Zone Outside Convection Algorithm
    625     Yes;                     !- Part of Total Floor Area
    626 
    627   Zone,
    628     Core_bottom,             !- Name
    629     0.0000,                  !- Direction of Relative North {deg}
    630     0.0000,                  !- X Origin {m}
    631     0.0000,                  !- Y Origin {m}
    632     0.0000,                  !- Z Origin {m}
    633     1,                       !- Type
    634     1,                       !- Multiplier
    635     ,                        !- Ceiling Height {m}
    636     ,                        !- Volume {m3}
    637     autocalculate,           !- Floor Area {m2}
    638     ,                        !- Zone Inside Convection Algorithm
    639     ,                        !- Zone Outside Convection Algorithm
    640     Yes;                     !- Part of Total Floor Area
    641 
    642   Zone,
    643     Core_mid,                !- Name
    644     0.0000,                  !- Direction of Relative North {deg}
    645     0.0000,                  !- X Origin {m}
    646     0.0000,                  !- Y Origin {m}
    647     0.0000,                  !- Z Origin {m}
    648     1,                       !- Type
    649     10,                      !- Multiplier
    650     ,                        !- Ceiling Height {m}
    651     ,                        !- Volume {m3}
    652     autocalculate,           !- Floor Area {m2}
    653     ,                        !- Zone Inside Convection Algorithm
    654     ,                        !- Zone Outside Convection Algorithm
    655     Yes;                     !- Part of Total Floor Area
    656 
    657   Zone,
    658     Core_top,                !- Name
    659     0.0000,                  !- Direction of Relative North {deg}
    660     0.0000,                  !- X Origin {m}
    661     0.0000,                  !- Y Origin {m}
    662     0.0000,                  !- Z Origin {m}
    663     1,                       !- Type
    664     1,                       !- Multiplier
    665     ,                        !- Ceiling Height {m}
    666     ,                        !- Volume {m3}
    667     autocalculate,           !- Floor Area {m2}
    668     ,                        !- Zone Inside Convection Algorithm
    669     ,                        !- Zone Outside Convection Algorithm
    670     Yes;                     !- Part of Total Floor Area
    671 
    672   Zone,
    673     GroundFloor_Plenum,      !- Name
    674     0.0000,                  !- Direction of Relative North {deg}
    675     0.0000,                  !- X Origin {m}
    676     0.0000,                  !- Y Origin {m}
    677     0.0000,                  !- Z Origin {m}
    678     1,                       !- Type
    679     1,                       !- Multiplier
    680     ,                        !- Ceiling Height {m}
    681     ,                        !- Volume {m3}
    682     autocalculate,           !- Floor Area {m2}
    683     ,                        !- Zone Inside Convection Algorithm
    684     ,                        !- Zone Outside Convection Algorithm
    685     No;                      !- Part of Total Floor Area
    686 
    687   Zone,
    688     MidFloor_Plenum,         !- Name
    689     0.0000,                  !- Direction of Relative North {deg}
    690     0.0000,                  !- X Origin {m}
    691     0.0000,                  !- Y Origin {m}
    692     0.0000,                  !- Z Origin {m}
    693     1,                       !- Type
    694     10,                      !- Multiplier
    695     ,                        !- Ceiling Height {m}
    696     ,                        !- Volume {m3}
    697     autocalculate,           !- Floor Area {m2}
    698     ,                        !- Zone Inside Convection Algorithm
    699     ,                        !- Zone Outside Convection Algorithm
    700     No;                      !- Part of Total Floor Area
    701 
    702   Zone,
    703     Perimeter_bot_ZN_1,      !- Name
    704     0.0000,                  !- Direction of Relative North {deg}
    705     0.0000,                  !- X Origin {m}
    706     0.0000,                  !- Y Origin {m}
    707     0.0000,                  !- Z Origin {m}
    708     1,                       !- Type
    709     1,                       !- Multiplier
    710     ,                        !- Ceiling Height {m}
    711     ,                        !- Volume {m3}
    712     autocalculate,           !- Floor Area {m2}
    713     ,                        !- Zone Inside Convection Algorithm
    714     ,                        !- Zone Outside Convection Algorithm
    715     Yes;                     !- Part of Total Floor Area
    716 
    717   Zone,
    718     Perimeter_bot_ZN_2,      !- Name
    719     0.0000,                  !- Direction of Relative North {deg}
    720     0.0000,                  !- X Origin {m}
    721     0.0000,                  !- Y Origin {m}
    722     0.0000,                  !- Z Origin {m}
    723     1,                       !- Type
    724     1,                       !- Multiplier
    725     ,                        !- Ceiling Height {m}
    726     ,                        !- Volume {m3}
    727     autocalculate,           !- Floor Area {m2}
    728     ,                        !- Zone Inside Convection Algorithm
    729     ,                        !- Zone Outside Convection Algorithm
    730     Yes;                     !- Part of Total Floor Area
    731 
    732   Zone,
    733     Perimeter_bot_ZN_3,      !- Name
    734     0.0000,                  !- Direction of Relative North {deg}
    735     0.0000,                  !- X Origin {m}
    736     0.0000,                  !- Y Origin {m}
    737     0.0000,                  !- Z Origin {m}
    738     1,                       !- Type
    739     1,                       !- Multiplier
    740     ,                        !- Ceiling Height {m}
    741     ,                        !- Volume {m3}
    742     autocalculate,           !- Floor Area {m2}
    743     ,                        !- Zone Inside Convection Algorithm
    744     ,                        !- Zone Outside Convection Algorithm
    745     Yes;                     !- Part of Total Floor Area
    746 
    747   Zone,
    748     Perimeter_bot_ZN_4,      !- Name
    749     0.0000,                  !- Direction of Relative North {deg}
    750     0.0000,                  !- X Origin {m}
    751     0.0000,                  !- Y Origin {m}
    752     0.0000,                  !- Z Origin {m}
    753     1,                       !- Type
    754     1,                       !- Multiplier
    755     ,                        !- Ceiling Height {m}
    756     ,                        !- Volume {m3}
    757     autocalculate,           !- Floor Area {m2}
    758     ,                        !- Zone Inside Convection Algorithm
    759     ,                        !- Zone Outside Convection Algorithm
    760     Yes;                     !- Part of Total Floor Area
    761 
    762   Zone,
    763     Perimeter_mid_ZN_1,      !- Name
    764     0.0000,                  !- Direction of Relative North {deg}
    765     0.0000,                  !- X Origin {m}
    766     0.0000,                  !- Y Origin {m}
    767     0.0000,                  !- Z Origin {m}
    768     1,                       !- Type
    769     10,                      !- Multiplier
    770     ,                        !- Ceiling Height {m}
    771     ,                        !- Volume {m3}
    772     autocalculate,           !- Floor Area {m2}
    773     ,                        !- Zone Inside Convection Algorithm
    774     ,                        !- Zone Outside Convection Algorithm
    775     Yes;                     !- Part of Total Floor Area
    776 
    777   Zone,
    778     Perimeter_mid_ZN_2,      !- Name
    779     0.0000,                  !- Direction of Relative North {deg}
    780     0.0000,                  !- X Origin {m}
    781     0.0000,                  !- Y Origin {m}
    782     0.0000,                  !- Z Origin {m}
    783     1,                       !- Type
    784     10,                      !- Multiplier
    785     ,                        !- Ceiling Height {m}
    786     ,                        !- Volume {m3}
    787     autocalculate,           !- Floor Area {m2}
    788     ,                        !- Zone Inside Convection Algorithm
    789     ,                        !- Zone Outside Convection Algorithm
    790     Yes;                     !- Part of Total Floor Area
    791 
    792   Zone,
    793     Perimeter_mid_ZN_3,      !- Name
    794     0.0000,                  !- Direction of Relative North {deg}
    795     0.0000,                  !- X Origin {m}
    796     0.0000,                  !- Y Origin {m}
    797     0.0000,                  !- Z Origin {m}
    798     1,                       !- Type
    799     10,                      !- Multiplier
    800     ,                        !- Ceiling Height {m}
    801     ,                        !- Volume {m3}
    802     autocalculate,           !- Floor Area {m2}
    803     ,                        !- Zone Inside Convection Algorithm
    804     ,                        !- Zone Outside Convection Algorithm
    805     Yes;                     !- Part of Total Floor Area
    806 
    807   Zone,
    808     Perimeter_mid_ZN_4,      !- Name
    809     0.0000,                  !- Direction of Relative North {deg}
    810     0.0000,                  !- X Origin {m}
    811     0.0000,                  !- Y Origin {m}
    812     0.0000,                  !- Z Origin {m}
    813     1,                       !- Type
    814     10,                      !- Multiplier
    815     ,                        !- Ceiling Height {m}
    816     ,                        !- Volume {m3}
    817     autocalculate,           !- Floor Area {m2}
    818     ,                        !- Zone Inside Convection Algorithm
    819     ,                        !- Zone Outside Convection Algorithm
    820     Yes;                     !- Part of Total Floor Area
    821 
    822   Zone,
    823     Perimeter_top_ZN_1,      !- Name
    824     0.0000,                  !- Direction of Relative North {deg}
    825     0.0000,                  !- X Origin {m}
    826     0.0000,                  !- Y Origin {m}
    827     0.0000,                  !- Z Origin {m}
    828     1,                       !- Type
    829     1,                       !- Multiplier
    830     ,                        !- Ceiling Height {m}
    831     ,                        !- Volume {m3}
    832     autocalculate,           !- Floor Area {m2}
    833     ,                        !- Zone Inside Convection Algorithm
    834     ,                        !- Zone Outside Convection Algorithm
    835     Yes;                     !- Part of Total Floor Area
    836 
    837   Zone,
    838     Perimeter_top_ZN_2,      !- Name
    839     0.0000,                  !- Direction of Relative North {deg}
    840     0.0000,                  !- X Origin {m}
    841     0.0000,                  !- Y Origin {m}
    842     0.0000,                  !- Z Origin {m}
    843     1,                       !- Type
    844     1,                       !- Multiplier
    845     ,                        !- Ceiling Height {m}
    846     ,                        !- Volume {m3}
    847     autocalculate,           !- Floor Area {m2}
    848     ,                        !- Zone Inside Convection Algorithm
    849     ,                        !- Zone Outside Convection Algorithm
    850     Yes;                     !- Part of Total Floor Area
    851 
    852   Zone,
    853     Perimeter_top_ZN_3,      !- Name
    854     0.0000,                  !- Direction of Relative North {deg}
    855     0.0000,                  !- X Origin {m}
    856     0.0000,                  !- Y Origin {m}
    857     0.0000,                  !- Z Origin {m}
    858     1,                       !- Type
    859     1,                       !- Multiplier
    860     ,                        !- Ceiling Height {m}
    861     ,                        !- Volume {m3}
    862     autocalculate,           !- Floor Area {m2}
    863     ,                        !- Zone Inside Convection Algorithm
    864     ,                        !- Zone Outside Convection Algorithm
    865     Yes;                     !- Part of Total Floor Area
    866 
    867   Zone,
    868     Perimeter_top_ZN_4,      !- Name
    869     0.0000,                  !- Direction of Relative North {deg}
    870     0.0000,                  !- X Origin {m}
    871     0.0000,                  !- Y Origin {m}
    872     0.0000,                  !- Z Origin {m}
    873     1,                       !- Type
    874     1,                       !- Multiplier
    875     ,                        !- Ceiling Height {m}
    876     ,                        !- Volume {m3}
    877     autocalculate,           !- Floor Area {m2}
    878     ,                        !- Zone Inside Convection Algorithm
    879     ,                        !- Zone Outside Convection Algorithm
    880     Yes;                     !- Part of Total Floor Area
    881 
    882   Zone,
    883     TopFloor_Plenum,         !- Name
    884     0.0000,                  !- Direction of Relative North {deg}
    885     0.0000,                  !- X Origin {m}
    886     0.0000,                  !- Y Origin {m}
    887     0.0000,                  !- Z Origin {m}
    888     1,                       !- Type
    889     1,                       !- Multiplier
    890     ,                        !- Ceiling Height {m}
    891     ,                        !- Volume {m3}
    892     autocalculate,           !- Floor Area {m2}
    893     ,                        !- Zone Inside Convection Algorithm
    894     ,                        !- Zone Outside Convection Algorithm
    895     No;                      !- Part of Total Floor Area
    896 
    897 ! ***WALLS***
    898 
    899   BuildingSurface:Detailed,
    900     Basement_Ceiling_1,      !- Name
    901     Ceiling,                 !- Surface Type
    902     INT-FLOOR-UNDERSIDE,     !- Construction Name
    903     Basement,                !- Zone Name
    904     Surface,                 !- Outside Boundary Condition
    905     Perimeter_bot_ZN_1_Floor,!- Outside Boundary Condition Object
    906     NoSun,                   !- Sun Exposure
    907     NoWind,                  !- Wind Exposure
    908     AutoCalculate,           !- View Factor to Ground
    909     4,                       !- Number of Vertices
    910     4.5732,4.5732,0.0000,  !- X,Y,Z ==> Vertex 1 {m}
    911     0.0000,0.0000,0.0000,  !- X,Y,Z ==> Vertex 2 {m}
    912     73.1072,0.0000,0.0000,  !- X,Y,Z ==> Vertex 3 {m}
    913     68.5340,4.5732,0.0000;  !- X,Y,Z ==> Vertex 4 {m}
    914 
    915   BuildingSurface:Detailed,
    916     Basement_Ceiling_2,      !- Name
    917     Ceiling,                 !- Surface Type
    918     INT-FLOOR-UNDERSIDE,     !- Construction Name
    919     Basement,                !- Zone Name
    920     Surface,                 !- Outside Boundary Condition
    921     Perimeter_bot_ZN_2_Floor,!- Outside Boundary Condition Object
    922     NoSun,                   !- Sun Exposure
    923     NoWind,                  !- Wind Exposure
    924     AutoCalculate,           !- View Factor to Ground
    925     4,                       !- Number of Vertices
    926     68.5340,4.5732,0.0000,  !- X,Y,Z ==> Vertex 1 {m}
    927     73.1072,0.0000,0.0000,  !- X,Y,Z ==> Vertex 2 {m}
    928     73.1072,48.7381,0.0000,  !- X,Y,Z ==> Vertex 3 {m}
    929     68.5340,44.1650,0.0000;  !- X,Y,Z ==> Vertex 4 {m}
    930 
    931   BuildingSurface:Detailed,
    932     Basement_Ceiling_3,      !- Name
    933     Ceiling,                 !- Surface Type
    934     INT-FLOOR-UNDERSIDE,     !- Construction Name
    935     Basement,                !- Zone Name
    936     Surface,                 !- Outside Boundary Condition
    937     Perimeter_bot_ZN_3_Floor,!- Outside Boundary Condition Object
    938     NoSun,                   !- Sun Exposure
    939     NoWind,                  !- Wind Exposure
    940     AutoCalculate,           !- View Factor to Ground
    941     4,                       !- Number of Vertices
    942     68.5340,44.1650,0.0000,  !- X,Y,Z ==> Vertex 1 {m}
    943     73.1072,48.7381,0.0000,  !- X,Y,Z ==> Vertex 2 {m}
    944     0.0000,48.7381,0.0000,  !- X,Y,Z ==> Vertex 3 {m}
    945     4.5732,44.1650,0.0000;  !- X,Y,Z ==> Vertex 4 {m}
    946 
    947   BuildingSurface:Detailed,
    948     Basement_Ceiling_4,      !- Name
    949     Ceiling,                 !- Surface Type
    950     INT-FLOOR-UNDERSIDE,     !- Construction Name
    951     Basement,                !- Zone Name
    952     Surface,                 !- Outside Boundary Condition
    953     Perimeter_bot_ZN_4_Floor,!- Outside Boundary Condition Object
    954     NoSun,                   !- Sun Exposure
    955     NoWind,                  !- Wind Exposure
    956     AutoCalculate,           !- View Factor to Ground
    957     4,                       !- Number of Vertices
    958     4.5732,44.1650,0.0000,  !- X,Y,Z ==> Vertex 1 {m}
    959     0.0000,48.7381,0.0000,  !- X,Y,Z ==> Vertex 2 {m}
    960     0.0000,0.0000,0.0000,  !- X,Y,Z ==> Vertex 3 {m}
    961     4.5732,4.5732,0.0000;  !- X,Y,Z ==> Vertex 4 {m}
    962 
    963   BuildingSurface:Detailed,
    964     Basement_Ceiling_5,      !- Name
    965     Ceiling,                 !- Surface Type
    966     INT-FLOOR-UNDERSIDE,     !- Construction Name
    967     Basement,                !- Zone Name
    968     Surface,                 !- Outside Boundary Condition
    969     Core_bot_ZN_5_Floor,     !- Outside Boundary Condition Object
    970     NoSun,                   !- Sun Exposure
    971     NoWind,                  !- Wind Exposure
    972     AutoCalculate,           !- View Factor to Ground
    973     4,                       !- Number of Vertices
    974     4.5732,44.1650,0.0000,  !- X,Y,Z ==> Vertex 1 {m}
    975     4.5732,4.5732,0.0000,  !- X,Y,Z ==> Vertex 2 {m}
    976     68.5340,4.5732,0.0000,  !- X,Y,Z ==> Vertex 3 {m}
    977     68.5340,44.1650,0.0000;  !- X,Y,Z ==> Vertex 4 {m}
    978 
    979   BuildingSurface:Detailed,
    980     Basement_Floor,          !- Name
    981     Floor,                   !- Surface Type
    982     ext-slab,                !- Construction Name
    983     Basement,                !- Zone Name
    984     Ground,                  !- Outside Boundary Condition
    985     ,                        !- Outside Boundary Condition Object
    986     NoSun,                   !- Sun Exposure
    987     NoWind,                  !- Wind Exposure
    988     AutoCalculate,           !- View Factor to Ground
    989     4,                       !- Number of Vertices
    990     73.1072,48.7381,-2.4390,  !- X,Y,Z ==> Vertex 1 {m}
    991     73.1072,0.0000,-2.4390,  !- X,Y,Z ==> Vertex 2 {m}
    992     0.0000,0.0000,-2.4390,  !- X,Y,Z ==> Vertex 3 {m}
    993     0.0000,48.7381,-2.4390;  !- X,Y,Z ==> Vertex 4 {m}
    994 
    995   BuildingSurface:Detailed,
    996     Basement_Wall_East,      !- Name
    997     Wall,                    !- Surface Type
    998     Underground Wall Non-res,!- Construction Name
    999     Basement,                !- Zone Name
   1000     Ground,                  !- Outside Boundary Condition
   1001     ,                        !- Outside Boundary Condition Object
   1002     NoSun,                   !- Sun Exposure
   1003     NoWind,                  !- Wind Exposure
   1004     AutoCalculate,           !- View Factor to Ground
   1005     4,                       !- Number of Vertices
   1006     73.1072,0.0000,0.0000,  !- X,Y,Z ==> Vertex 1 {m}
   1007     73.1072,0.0000,-2.4390,  !- X,Y,Z ==> Vertex 2 {m}
   1008     73.1072,48.7381,-2.4390,  !- X,Y,Z ==> Vertex 3 {m}
   1009     73.1072,48.7381,0.0000;  !- X,Y,Z ==> Vertex 4 {m}
   1010 
   1011   BuildingSurface:Detailed,
   1012     Basement_Wall_North,     !- Name
   1013     Wall,                    !- Surface Type
   1014     Underground Wall Non-res,!- Construction Name
   1015     Basement,                !- Zone Name
   1016     Ground,                  !- Outside Boundary Condition
   1017     ,                        !- Outside Boundary Condition Object
   1018     NoSun,                   !- Sun Exposure
   1019     NoWind,                  !- Wind Exposure
   1020     AutoCalculate,           !- View Factor to Ground
   1021     4,                       !- Number of Vertices
   1022     73.1072,48.7381,0.0000,  !- X,Y,Z ==> Vertex 1 {m}
   1023     73.1072,48.7381,-2.4390,  !- X,Y,Z ==> Vertex 2 {m}
   1024     0.0000,48.7381,-2.4390,  !- X,Y,Z ==> Vertex 3 {m}
   1025     0.0000,48.7381,0.0000;  !- X,Y,Z ==> Vertex 4 {m}
   1026 
   1027   BuildingSurface:Detailed,
   1028     Basement_Wall_South,     !- Name
   1029     Wall,                    !- Surface Type
   1030     Underground Wall Non-res,!- Construction Name
   1031     Basement,                !- Zone Name
   1032     Ground,                  !- Outside Boundary Condition
   1033     ,                        !- Outside Boundary Condition Object
   1034     NoSun,                   !- Sun Exposure
   1035     NoWind,                  !- Wind Exposure
   1036     AutoCalculate,           !- View Factor to Ground
   1037     4,                       !- Number of Vertices
   1038     0.0000,0.0000,0.0000,  !- X,Y,Z ==> Vertex 1 {m}
   1039     0.0000,0.0000,-2.4390,  !- X,Y,Z ==> Vertex 2 {m}
   1040     73.1072,0.0000,-2.4390,  !- X,Y,Z ==> Vertex 3 {m}
   1041     73.1072,0.0000,0.0000;  !- X,Y,Z ==> Vertex 4 {m}
   1042 
   1043   BuildingSurface:Detailed,
   1044     Basement_Wall_West,      !- Name
   1045     Wall,                    !- Surface Type
   1046     Underground Wall Non-res,!- Construction Name
   1047     Basement,                !- Zone Name
   1048     Ground,                  !- Outside Boundary Condition
   1049     ,                        !- Outside Boundary Condition Object
   1050     NoSun,                   !- Sun Exposure
   1051     NoWind,                  !- Wind Exposure
   1052     AutoCalculate,           !- View Factor to Ground
   1053     4,                       !- Number of Vertices
   1054     0.0000,48.7381,0.0000,  !- X,Y,Z ==> Vertex 1 {m}
   1055     0.0000,48.7381,-2.4390,  !- X,Y,Z ==> Vertex 2 {m}
   1056     0.0000,0.0000,-2.4390,  !- X,Y,Z ==> Vertex 3 {m}
   1057     0.0000,0.0000,0.0000;  !- X,Y,Z ==> Vertex 4 {m}
   1058 
   1059   BuildingSurface:Detailed,
   1060     Building_Roof,           !- Name
   1061     Roof,                    !- Surface Type
   1062     IEAD Non-res Roof,       !- Construction Name
   1063     TopFloor_Plenum,         !- Zone Name
   1064     Outdoors,                !- Outside Boundary Condition
   1065     ,                        !- Outside Boundary Condition Object
   1066     SunExposed,              !- Sun Exposure
   1067     WindExposed,             !- Wind Exposure
   1068     AutoCalculate,           !- View Factor to Ground
   1069     4,                       !- Number of Vertices
   1070     73.1072,0.0000,47.5584,  !- X,Y,Z ==> Vertex 1 {m}
   1071     73.1072,48.7381,47.5584,  !- X,Y,Z ==> Vertex 2 {m}
   1072     0.0000,48.7381,47.5584,  !- X,Y,Z ==> Vertex 3 {m}
   1073     0.0000,0.0000,47.5584;  !- X,Y,Z ==> Vertex 4 {m}
   1074 
   1075   BuildingSurface:Detailed,
   1076     Core_bot_ZN_5_Ceiling,   !- Name
   1077     Ceiling,                 !- Surface Type
   1078     DropCeiling,             !- Construction Name
   1079     Core_bottom,             !- Zone Name
   1080     Surface,                 !- Outside Boundary Condition
   1081     GroundFloor_Plenum_Floor_5,  !- Outside Boundary Condition Object
   1082     NoSun,                   !- Sun Exposure
   1083     NoWind,                  !- Wind Exposure
   1084     AutoCalculate,           !- View Factor to Ground
   1085     4,                       !- Number of Vertices
   1086     4.5732,44.1650,2.7440,  !- X,Y,Z ==> Vertex 1 {m}
   1087     4.5732,4.5732,2.7440,  !- X,Y,Z ==> Vertex 2 {m}
   1088     68.5340,4.5732,2.7440,  !- X,Y,Z ==> Vertex 3 {m}
   1089     68.5340,44.1650,2.7440;  !- X,Y,Z ==> Vertex 4 {m}
   1090 
   1091   BuildingSurface:Detailed,
   1092     Core_bot_ZN_5_Floor,     !- Name
   1093     Floor,                   !- Surface Type
   1094     INT-FLOOR-TOPSIDE,       !- Construction Name
   1095     Core_bottom,             !- Zone Name
   1096     Surface,                 !- Outside Boundary Condition
   1097     Basement_Ceiling_5,      !- Outside Boundary Condition Object
   1098     NoSun,                   !- Sun Exposure
   1099     NoWind,                  !- Wind Exposure
   1100     AutoCalculate,           !- View Factor to Ground
   1101     4,                       !- Number of Vertices
   1102     68.5340,44.1650,0.0000,  !- X,Y,Z ==> Vertex 1 {m}
   1103     68.5340,4.5732,0.0000,  !- X,Y,Z ==> Vertex 2 {m}
   1104     4.5732,4.5732,0.0000,  !- X,Y,Z ==> Vertex 3 {m}
   1105     4.5732,44.1650,0.0000;  !- X,Y,Z ==> Vertex 4 {m}
   1106 
   1107   BuildingSurface:Detailed,
   1108     Core_bot_ZN_5_Wall_East, !- Name
   1109     Wall,                    !- Surface Type
   1110     int-walls,               !- Construction Name
   1111     Core_bottom,             !- Zone Name
   1112     Surface,                 !- Outside Boundary Condition
   1113     Perimeter_bot_ZN_2_Wall_West,  !- Outside Boundary Condition Object
   1114     NoSun,                   !- Sun Exposure
   1115     NoWind,                  !- Wind Exposure
   1116     AutoCalculate,           !- View Factor to Ground
   1117     4,                       !- Number of Vertices
   1118     68.5340,4.5732,2.7440,  !- X,Y,Z ==> Vertex 1 {m}
   1119     68.5340,4.5732,0.0000,  !- X,Y,Z ==> Vertex 2 {m}
   1120     68.5340,44.1650,0.0000,  !- X,Y,Z ==> Vertex 3 {m}
   1121     68.5340,44.1650,2.7440;  !- X,Y,Z ==> Vertex 4 {m}
   1122 
   1123   BuildingSurface:Detailed,
   1124     Core_bot_ZN_5_Wall_North,!- Name
   1125     Wall,                    !- Surface Type
   1126     int-walls,               !- Construction Name
   1127     Core_bottom,             !- Zone Name
   1128     Surface,                 !- Outside Boundary Condition
   1129     Perimeter_bot_ZN_3_Wall_South,  !- Outside Boundary Condition Object
   1130     NoSun,                   !- Sun Exposure
   1131     NoWind,                  !- Wind Exposure
   1132     AutoCalculate,           !- View Factor to Ground
   1133     4,                       !- Number of Vertices
   1134     68.5340,44.1650,2.7440,  !- X,Y,Z ==> Vertex 1 {m}
   1135     68.5340,44.1650,0.0000,  !- X,Y,Z ==> Vertex 2 {m}
   1136     4.5732,44.1650,0.0000,  !- X,Y,Z ==> Vertex 3 {m}
   1137     4.5732,44.1650,2.7440;  !- X,Y,Z ==> Vertex 4 {m}
   1138 
   1139   BuildingSurface:Detailed,
   1140     Core_bot_ZN_5_Wall_South,!- Name
   1141     Wall,                    !- Surface Type
   1142     int-walls,               !- Construction Name
   1143     Core_bottom,             !- Zone Name
   1144     Surface,                 !- Outside Boundary Condition
   1145     Perimeter_bot_ZN_1_Wall_North,  !- Outside Boundary Condition Object
   1146     NoSun,                   !- Sun Exposure
   1147     NoWind,                  !- Wind Exposure
   1148     AutoCalculate,           !- View Factor to Ground
   1149     4,                       !- Number of Vertices
   1150     4.5732,4.5732,2.7440,  !- X,Y,Z ==> Vertex 1 {m}
   1151     4.5732,4.5732,0.0000,  !- X,Y,Z ==> Vertex 2 {m}
   1152     68.5340,4.5732,0.0000,  !- X,Y,Z ==> Vertex 3 {m}
   1153     68.5340,4.5732,2.7440;  !- X,Y,Z ==> Vertex 4 {m}
   1154 
   1155   BuildingSurface:Detailed,
   1156     Core_bot_ZN_5_Wall_West, !- Name
   1157     Wall,                    !- Surface Type
   1158     int-walls,               !- Construction Name
   1159     Core_bottom,             !- Zone Name
   1160     Surface,                 !- Outside Boundary Condition
   1161     Perimeter_bot_ZN_4_Wall_East,  !- Outside Boundary Condition Object
   1162     NoSun,                   !- Sun Exposure
   1163     NoWind,                  !- Wind Exposure
   1164     AutoCalculate,           !- View Factor to Ground
   1165     4,                       !- Number of Vertices
   1166     4.5732,44.1650,2.7440,  !- X,Y,Z ==> Vertex 1 {m}
   1167     4.5732,44.1650,0.0000,  !- X,Y,Z ==> Vertex 2 {m}
   1168     4.5732,4.5732,0.0000,  !- X,Y,Z ==> Vertex 3 {m}
   1169     4.5732,4.5732,2.7440;  !- X,Y,Z ==> Vertex 4 {m}
   1170 
   1171   BuildingSurface:Detailed,
   1172     Core_mid_ZN_5_Ceiling,   !- Name
   1173     Ceiling,                 !- Surface Type
   1174     DropCeiling,             !- Construction Name
   1175     Core_mid,                !- Zone Name
   1176     Surface,                 !- Outside Boundary Condition
   1177     MidFloor_Plenum_Floor_5, !- Outside Boundary Condition Object
   1178     NoSun,                   !- Sun Exposure
   1179     NoWind,                  !- Wind Exposure
   1180     AutoCalculate,           !- View Factor to Ground
   1181     4,                       !- Number of Vertices
   1182     4.5732,44.1650,22.5600,  !- X,Y,Z ==> Vertex 1 {m}
   1183     4.5732,4.5732,22.5600,  !- X,Y,Z ==> Vertex 2 {m}
   1184     68.5340,4.5732,22.5600,  !- X,Y,Z ==> Vertex 3 {m}
   1185     68.5340,44.1650,22.5600;  !- X,Y,Z ==> Vertex 4 {m}
   1186 
   1187   BuildingSurface:Detailed,
   1188     Core_mid_ZN_5_Floor,     !- Name
   1189     Floor,                   !- Surface Type
   1190     INT-FLOOR-TOPSIDE,       !- Construction Name
   1191     Core_mid,                !- Zone Name
   1192     Surface,                 !- Outside Boundary Condition
   1193     Core_mid_ZN_5_Floor,     !- Outside Boundary Condition Object
   1194     NoSun,                   !- Sun Exposure
   1195     NoWind,                  !- Wind Exposure
   1196     AutoCalculate,           !- View Factor to Ground
   1197     4,                       !- Number of Vertices
   1198     68.5340,44.1650,19.8160,  !- X,Y,Z ==> Vertex 1 {m}
   1199     68.5340,4.5732,19.8160,  !- X,Y,Z ==> Vertex 2 {m}
   1200     4.5732,4.5732,19.8160,  !- X,Y,Z ==> Vertex 3 {m}
   1201     4.5732,44.1650,19.8160;  !- X,Y,Z ==> Vertex 4 {m}
   1202 
   1203   BuildingSurface:Detailed,
   1204     Core_mid_ZN_5_Wall_East, !- Name
   1205     Wall,                    !- Surface Type
   1206     int-walls,               !- Construction Name
   1207     Core_mid,                !- Zone Name
   1208     Surface,                 !- Outside Boundary Condition
   1209     Perimeter_mid_ZN_2_Wall_West,  !- Outside Boundary Condition Object
   1210     NoSun,                   !- Sun Exposure
   1211     NoWind,                  !- Wind Exposure
   1212     AutoCalculate,           !- View Factor to Ground
   1213     4,                       !- Number of Vertices
   1214     68.5340,4.5732,22.5600,  !- X,Y,Z ==> Vertex 1 {m}
   1215     68.5340,4.5732,19.8160,  !- X,Y,Z ==> Vertex 2 {m}
   1216     68.5340,44.1650,19.8160,  !- X,Y,Z ==> Vertex 3 {m}
   1217     68.5340,44.1650,22.5600;  !- X,Y,Z ==> Vertex 4 {m}
   1218 
   1219   BuildingSurface:Detailed,
   1220     Core_mid_ZN_5_Wall_North,!- Name
   1221     Wall,                    !- Surface Type
   1222     int-walls,               !- Construction Name
   1223     Core_mid,                !- Zone Name
   1224     Surface,                 !- Outside Boundary Condition
   1225     Perimeter_mid_ZN_3_Wall_South,  !- Outside Boundary Condition Object
   1226     NoSun,                   !- Sun Exposure
   1227     NoWind,                  !- Wind Exposure
   1228     AutoCalculate,           !- View Factor to Ground
   1229     4,                       !- Number of Vertices
   1230     68.5340,44.1650,22.5600,  !- X,Y,Z ==> Vertex 1 {m}
   1231     68.5340,44.1650,19.8160,  !- X,Y,Z ==> Vertex 2 {m}
   1232     4.5732,44.1650,19.8160,  !- X,Y,Z ==> Vertex 3 {m}
   1233     4.5732,44.1650,22.5600;  !- X,Y,Z ==> Vertex 4 {m}
   1234 
   1235   BuildingSurface:Detailed,
   1236     Core_mid_ZN_5_Wall_South,!- Name
   1237     Wall,                    !- Surface Type
   1238     int-walls,               !- Construction Name
   1239     Core_mid,                !- Zone Name
   1240     Surface,                 !- Outside Boundary Condition
   1241     Perimeter_mid_ZN_1_Wall_North,  !- Outside Boundary Condition Object
   1242     NoSun,                   !- Sun Exposure
   1243     NoWind,                  !- Wind Exposure
   1244     AutoCalculate,           !- View Factor to Ground
   1245     4,                       !- Number of Vertices
   1246     4.5732,4.5732,22.5600,  !- X,Y,Z ==> Vertex 1 {m}
   1247     4.5732,4.5732,19.8160,  !- X,Y,Z ==> Vertex 2 {m}
   1248     68.5340,4.5732,19.8160,  !- X,Y,Z ==> Vertex 3 {m}
   1249     68.5340,4.5732,22.5600;  !- X,Y,Z ==> Vertex 4 {m}
   1250 
   1251   BuildingSurface:Detailed,
   1252     Core_mid_ZN_5_Wall_West, !- Name
   1253     Wall,                    !- Surface Type
   1254     int-walls,               !- Construction Name
   1255     Core_mid,                !- Zone Name
   1256     Surface,                 !- Outside Boundary Condition
   1257     Perimeter_mid_ZN_4_Wall_East,  !- Outside Boundary Condition Object
   1258     NoSun,                   !- Sun Exposure
   1259     NoWind,                  !- Wind Exposure
   1260     AutoCalculate,           !- View Factor to Ground
   1261     4,                       !- Number of Vertices
   1262     4.5732,44.1650,22.5600,  !- X,Y,Z ==> Vertex 1 {m}
   1263     4.5732,44.1650,19.8160,  !- X,Y,Z ==> Vertex 2 {m}
   1264     4.5732,4.5732,19.8160,  !- X,Y,Z ==> Vertex 3 {m}
   1265     4.5732,4.5732,22.5600;  !- X,Y,Z ==> Vertex 4 {m}
   1266 
   1267   BuildingSurface:Detailed,
   1268     Core_top_ZN_5_Ceiling,   !- Name
   1269     Ceiling,                 !- Surface Type
   1270     DropCeiling,             !- Construction Name
   1271     Core_top,                !- Zone Name
   1272     Surface,                 !- Outside Boundary Condition
   1273     TopFloor_Plenum_Floor_5, !- Outside Boundary Condition Object
   1274     NoSun,                   !- Sun Exposure
   1275     NoWind,                  !- Wind Exposure
   1276     AutoCalculate,           !- View Factor to Ground
   1277     4,                       !- Number of Vertices
   1278     4.5732,44.1650,46.3392,  !- X,Y,Z ==> Vertex 1 {m}
   1279     4.5732,4.5732,46.3392,  !- X,Y,Z ==> Vertex 2 {m}
   1280     68.5340,4.5732,46.3392,  !- X,Y,Z ==> Vertex 3 {m}
   1281     68.5340,44.1650,46.3392;  !- X,Y,Z ==> Vertex 4 {m}
   1282 
   1283   BuildingSurface:Detailed,
   1284     Core_top_ZN_5_Floor,     !- Name
   1285     Floor,                   !- Surface Type
   1286     INT-FLOOR-TOPSIDE,       !- Construction Name
   1287     Core_top,                !- Zone Name
   1288     Surface,                 !- Outside Boundary Condition
   1289     Core_top_ZN_5_Floor,     !- Outside Boundary Condition Object
   1290     NoSun,                   !- Sun Exposure
   1291     NoWind,                  !- Wind Exposure
   1292     AutoCalculate,           !- View Factor to Ground
   1293     4,                       !- Number of Vertices
   1294     68.5340,44.1650,43.5952,  !- X,Y,Z ==> Vertex 1 {m}
   1295     68.5340,4.5732,43.5952,  !- X,Y,Z ==> Vertex 2 {m}
   1296     4.5732,4.5732,43.5952,  !- X,Y,Z ==> Vertex 3 {m}
   1297     4.5732,44.1650,43.5952;  !- X,Y,Z ==> Vertex 4 {m}
   1298 
   1299   BuildingSurface:Detailed,
   1300     Core_top_ZN_5_Wall_East, !- Name
   1301     Wall,                    !- Surface Type
   1302     int-walls,               !- Construction Name
   1303     Core_top,                !- Zone Name
   1304     Surface,                 !- Outside Boundary Condition
   1305     Perimeter_top_ZN_2_Wall_West,  !- Outside Boundary Condition Object
   1306     NoSun,                   !- Sun Exposure
   1307     NoWind,                  !- Wind Exposure
   1308     AutoCalculate,           !- View Factor to Ground
   1309     4,                       !- Number of Vertices
   1310     68.5340,4.5732,46.3392,  !- X,Y,Z ==> Vertex 1 {m}
   1311     68.5340,4.5732,43.5952,  !- X,Y,Z ==> Vertex 2 {m}
   1312     68.5340,44.1650,43.5952,  !- X,Y,Z ==> Vertex 3 {m}
   1313     68.5340,44.1650,46.3392;  !- X,Y,Z ==> Vertex 4 {m}
   1314 
   1315   BuildingSurface:Detailed,
   1316     Core_top_ZN_5_Wall_North,!- Name
   1317     Wall,                    !- Surface Type
   1318     int-walls,               !- Construction Name
   1319     Core_top,                !- Zone Name
   1320     Surface,                 !- Outside Boundary Condition
   1321     Perimeter_top_ZN_3_Wall_South,  !- Outside Boundary Condition Object
   1322     NoSun,                   !- Sun Exposure
   1323     NoWind,                  !- Wind Exposure
   1324     AutoCalculate,           !- View Factor to Ground
   1325     4,                       !- Number of Vertices
   1326     68.5340,44.1650,46.3392,  !- X,Y,Z ==> Vertex 1 {m}
   1327     68.5340,44.1650,43.5952,  !- X,Y,Z ==> Vertex 2 {m}
   1328     4.5732,44.1650,43.5952,  !- X,Y,Z ==> Vertex 3 {m}
   1329     4.5732,44.1650,46.3392;  !- X,Y,Z ==> Vertex 4 {m}
   1330 
   1331   BuildingSurface:Detailed,
   1332     Core_top_ZN_5_Wall_South,!- Name
   1333     Wall,                    !- Surface Type
   1334     int-walls,               !- Construction Name
   1335     Core_top,                !- Zone Name
   1336     Surface,                 !- Outside Boundary Condition
   1337     Perimeter_top_ZN_1_Wall_North,  !- Outside Boundary Condition Object
   1338     NoSun,                   !- Sun Exposure
   1339     NoWind,                  !- Wind Exposure
   1340     AutoCalculate,           !- View Factor to Ground
   1341     4,                       !- Number of Vertices
   1342     4.5732,4.5732,46.3392,  !- X,Y,Z ==> Vertex 1 {m}
   1343     4.5732,4.5732,43.5952,  !- X,Y,Z ==> Vertex 2 {m}
   1344     68.5340,4.5732,43.5952,  !- X,Y,Z ==> Vertex 3 {m}
   1345     68.5340,4.5732,46.3392;  !- X,Y,Z ==> Vertex 4 {m}
   1346 
   1347   BuildingSurface:Detailed,
   1348     Core_top_ZN_5_Wall_West, !- Name
   1349     Wall,                    !- Surface Type
   1350     int-walls,               !- Construction Name
   1351     Core_top,                !- Zone Name
   1352     Surface,                 !- Outside Boundary Condition
   1353     Perimeter_top_ZN_4_Wall_East,  !- Outside Boundary Condition Object
   1354     NoSun,                   !- Sun Exposure
   1355     NoWind,                  !- Wind Exposure
   1356     AutoCalculate,           !- View Factor to Ground
   1357     4,                       !- Number of Vertices
   1358     4.5732,44.1650,46.3392,  !- X,Y,Z ==> Vertex 1 {m}
   1359     4.5732,44.1650,43.5952,  !- X,Y,Z ==> Vertex 2 {m}
   1360     4.5732,4.5732,43.5952,  !- X,Y,Z ==> Vertex 3 {m}
   1361     4.5732,4.5732,46.3392;  !- X,Y,Z ==> Vertex 4 {m}
   1362 
   1363   BuildingSurface:Detailed,
   1364     GroundFloor_Plenum_Ceiling,  !- Name
   1365     Ceiling,                 !- Surface Type
   1366     INT-FLOOR-UNDERSIDE,     !- Construction Name
   1367     GroundFloor_Plenum,      !- Zone Name
   1368     Surface,                 !- Outside Boundary Condition
   1369     GroundFloor_Plenum_Ceiling,  !- Outside Boundary Condition Object
   1370     NoSun,                   !- Sun Exposure
   1371     NoWind,                  !- Wind Exposure
   1372     AutoCalculate,           !- View Factor to Ground
   1373     4,                       !- Number of Vertices
   1374     73.1072,0.0000,3.9632,  !- X,Y,Z ==> Vertex 1 {m}
   1375     73.1072,48.7381,3.9632,  !- X,Y,Z ==> Vertex 2 {m}
   1376     0.0000,48.7381,3.9632,  !- X,Y,Z ==> Vertex 3 {m}
   1377     0.0000,0.0000,3.9632;  !- X,Y,Z ==> Vertex 4 {m}
   1378 
   1379   BuildingSurface:Detailed,
   1380     GroundFloor_Plenum_Floor_1,  !- Name
   1381     Floor,                   !- Surface Type
   1382     DropCeiling,             !- Construction Name
   1383     GroundFloor_Plenum,      !- Zone Name
   1384     Surface,                 !- Outside Boundary Condition
   1385     Perimeter_bot_ZN_1_Ceiling,  !- Outside Boundary Condition Object
   1386     NoSun,                   !- Sun Exposure
   1387     NoWind,                  !- Wind Exposure
   1388     AutoCalculate,           !- View Factor to Ground
   1389     4,                       !- Number of Vertices
   1390     4.5732,4.5732,2.7440,  !- X,Y,Z ==> Vertex 1 {m}
   1391     68.5340,4.5732,2.7440,  !- X,Y,Z ==> Vertex 2 {m}
   1392     73.1072,0.0000,2.7440,  !- X,Y,Z ==> Vertex 3 {m}
   1393     0.0000,0.0000,2.7440;  !- X,Y,Z ==> Vertex 4 {m}
   1394 
   1395   BuildingSurface:Detailed,
   1396     GroundFloor_Plenum_Floor_2,  !- Name
   1397     Floor,                   !- Surface Type
   1398     DropCeiling,             !- Construction Name
   1399     GroundFloor_Plenum,      !- Zone Name
   1400     Surface,                 !- Outside Boundary Condition
   1401     Perimeter_bot_ZN_2_Ceiling,  !- Outside Boundary Condition Object
   1402     NoSun,                   !- Sun Exposure
   1403     NoWind,                  !- Wind Exposure
   1404     AutoCalculate,           !- View Factor to Ground
   1405     4,                       !- Number of Vertices
   1406     73.1072,48.7381,2.7440,  !- X,Y,Z ==> Vertex 1 {m}
   1407     73.1072,0.0000,2.7440,  !- X,Y,Z ==> Vertex 2 {m}
   1408     68.5340,4.5732,2.7440,  !- X,Y,Z ==> Vertex 3 {m}
   1409     68.5340,44.1650,2.7440;  !- X,Y,Z ==> Vertex 4 {m}
   1410 
   1411   BuildingSurface:Detailed,
   1412     GroundFloor_Plenum_Floor_3,  !- Name
   1413     Floor,                   !- Surface Type
   1414     DropCeiling,             !- Construction Name
   1415     GroundFloor_Plenum,      !- Zone Name
   1416     Surface,                 !- Outside Boundary Condition
   1417     Perimeter_bot_ZN_3_Ceiling,  !- Outside Boundary Condition Object
   1418     NoSun,                   !- Sun Exposure
   1419     NoWind,                  !- Wind Exposure
   1420     AutoCalculate,           !- View Factor to Ground
   1421     4,                       !- Number of Vertices
   1422     68.5340,44.1650,2.7440,  !- X,Y,Z ==> Vertex 1 {m}
   1423     4.5732,44.1650,2.7440,  !- X,Y,Z ==> Vertex 2 {m}
   1424     0.0000,48.7381,2.7440,  !- X,Y,Z ==> Vertex 3 {m}
   1425     73.1072,48.7381,2.7440;  !- X,Y,Z ==> Vertex 4 {m}
   1426 
   1427   BuildingSurface:Detailed,
   1428     GroundFloor_Plenum_Floor_4,  !- Name
   1429     Floor,                   !- Surface Type
   1430     DropCeiling,             !- Construction Name
   1431     GroundFloor_Plenum,      !- Zone Name
   1432     Surface,                 !- Outside Boundary Condition
   1433     Perimeter_bot_ZN_4_Ceiling,  !- Outside Boundary Condition Object
   1434     NoSun,                   !- Sun Exposure
   1435     NoWind,                  !- Wind Exposure
   1436     AutoCalculate,           !- View Factor to Ground
   1437     4,                       !- Number of Vertices
   1438     4.5732,44.1650,2.7440,  !- X,Y,Z ==> Vertex 1 {m}
   1439     4.5732,4.5732,2.7440,  !- X,Y,Z ==> Vertex 2 {m}
   1440     0.0000,0.0000,2.7440,  !- X,Y,Z ==> Vertex 3 {m}
   1441     0.0000,48.7381,2.7440;  !- X,Y,Z ==> Vertex 4 {m}
   1442 
   1443   BuildingSurface:Detailed,
   1444     GroundFloor_Plenum_Floor_5,  !- Name
   1445     Floor,                   !- Surface Type
   1446     DropCeiling,             !- Construction Name
   1447     GroundFloor_Plenum,      !- Zone Name
   1448     Surface,                 !- Outside Boundary Condition
   1449     Core_bot_ZN_5_Ceiling,   !- Outside Boundary Condition Object
   1450     NoSun,                   !- Sun Exposure
   1451     NoWind,                  !- Wind Exposure
   1452     AutoCalculate,           !- View Factor to Ground
   1453     4,                       !- Number of Vertices
   1454     68.5340,4.5732,2.7440,  !- X,Y,Z ==> Vertex 1 {m}
   1455     4.5732,4.5732,2.7440,  !- X,Y,Z ==> Vertex 2 {m}
   1456     4.5732,44.1650,2.7440,  !- X,Y,Z ==> Vertex 3 {m}
   1457     68.5340,44.1650,2.7440;  !- X,Y,Z ==> Vertex 4 {m}
   1458 
   1459   BuildingSurface:Detailed,
   1460     GroundFloor_Plenum_Wall_East,  !- Name
   1461     Wall,                    !- Surface Type
   1462     Mass Non-res Ext Wall,   !- Construction Name
   1463     GroundFloor_Plenum,      !- Zone Name
   1464     Outdoors,                !- Outside Boundary Condition
   1465     ,                        !- Outside Boundary Condition Object
   1466     SunExposed,              !- Sun Exposure
   1467     WindExposed,             !- Wind Exposure
   1468     AutoCalculate,           !- View Factor to Ground
   1469     4,                       !- Number of Vertices
   1470     73.1072,0.0000,3.9632,  !- X,Y,Z ==> Vertex 1 {m}
   1471     73.1072,0.0000,2.7440,  !- X,Y,Z ==> Vertex 2 {m}
   1472     73.1072,48.7381,2.7440,  !- X,Y,Z ==> Vertex 3 {m}
   1473     73.1072,48.7381,3.9632;  !- X,Y,Z ==> Vertex 4 {m}
   1474 
   1475   BuildingSurface:Detailed,
   1476     GroundFloor_Plenum_Wall_North,  !- Name
   1477     Wall,                    !- Surface Type
   1478     Mass Non-res Ext Wall,   !- Construction Name
   1479     GroundFloor_Plenum,      !- Zone Name
   1480     Outdoors,                !- Outside Boundary Condition
   1481     ,                        !- Outside Boundary Condition Object
   1482     SunExposed,              !- Sun Exposure
   1483     WindExposed,             !- Wind Exposure
   1484     AutoCalculate,           !- View Factor to Ground
   1485     4,                       !- Number of Vertices
   1486     73.1072,48.7381,3.9632,  !- X,Y,Z ==> Vertex 1 {m}
   1487     73.1072,48.7381,2.7440,  !- X,Y,Z ==> Vertex 2 {m}
   1488     0.0000,48.7381,2.7440,  !- X,Y,Z ==> Vertex 3 {m}
   1489     0.0000,48.7381,3.9632;  !- X,Y,Z ==> Vertex 4 {m}
   1490 
   1491   BuildingSurface:Detailed,
   1492     GroundFloor_Plenum_Wall_South,  !- Name
   1493     Wall,                    !- Surface Type
   1494     Mass Non-res Ext Wall,   !- Construction Name
   1495     GroundFloor_Plenum,      !- Zone Name
   1496     Outdoors,                !- Outside Boundary Condition
   1497     ,                        !- Outside Boundary Condition Object
   1498     SunExposed,              !- Sun Exposure
   1499     WindExposed,             !- Wind Exposure
   1500     AutoCalculate,           !- View Factor to Ground
   1501     4,                       !- Number of Vertices
   1502     0.0000,0.0000,3.9632,  !- X,Y,Z ==> Vertex 1 {m}
   1503     0.0000,0.0000,2.7440,  !- X,Y,Z ==> Vertex 2 {m}
   1504     73.1072,0.0000,2.7440,  !- X,Y,Z ==> Vertex 3 {m}
   1505     73.1072,0.0000,3.9632;  !- X,Y,Z ==> Vertex 4 {m}
   1506 
   1507   BuildingSurface:Detailed,
   1508     GroundFloor_Plenum_West, !- Name
   1509     Wall,                    !- Surface Type
   1510     Mass Non-res Ext Wall,   !- Construction Name
   1511     GroundFloor_Plenum,      !- Zone Name
   1512     Outdoors,                !- Outside Boundary Condition
   1513     ,                        !- Outside Boundary Condition Object
   1514     SunExposed,              !- Sun Exposure
   1515     WindExposed,             !- Wind Exposure
   1516     AutoCalculate,           !- View Factor to Ground
   1517     4,                       !- Number of Vertices
   1518     0.0000,48.7381,3.9632,  !- X,Y,Z ==> Vertex 1 {m}
   1519     0.0000,48.7381,2.7440,  !- X,Y,Z ==> Vertex 2 {m}
   1520     0.0000,0.0000,2.7440,  !- X,Y,Z ==> Vertex 3 {m}
   1521     0.0000,0.0000,3.9632;  !- X,Y,Z ==> Vertex 4 {m}
   1522 
   1523   BuildingSurface:Detailed,
   1524     MidFloor_Plenum_Ceiling, !- Name
   1525     Ceiling,                 !- Surface Type
   1526     INT-FLOOR-UNDERSIDE,     !- Construction Name
   1527     MidFloor_Plenum,         !- Zone Name
   1528     Surface,                 !- Outside Boundary Condition
   1529     MidFloor_Plenum_Ceiling, !- Outside Boundary Condition Object
   1530     NoSun,                   !- Sun Exposure
   1531     NoWind,                  !- Wind Exposure
   1532     AutoCalculate,           !- View Factor to Ground
   1533     4,                       !- Number of Vertices
   1534     73.1072,48.7381,23.7792,  !- X,Y,Z ==> Vertex 1 {m}
   1535     0.0000,48.7381,23.7792,  !- X,Y,Z ==> Vertex 2 {m}
   1536     0.0000,0.0000,23.7792,  !- X,Y,Z ==> Vertex 3 {m}
[...]
   9440 !     5;                       !- Interval Count
   9441 !
   9442 !   Output:Table:TimeBins,
   9443 !     *,                       !- Key Value
   9444 !     Availability Manager Night Cycle Control Status,  !- Variable Name
   9445 !     0,                       !- Interval Start
   9446 !     1,                       !- Interval Size
   9447 !     4;                       !- Interval Count
   9448 
   9449 ! ***ENVIRONMENTAL FACTORS REPORTING***
   9450 
   9451 !   Output:EnvironmentalImpactFactors,
   9452 !     Monthly;                 !- Reporting Frequency
   9453 !
   9454 !   EnvironmentalImpactFactors,
   9455 !     0.663,                   !- District Heating Efficiency
   9456 !     4.18,                    !- District Cooling COP {W/W}
   9457 !     0.585,                   !- Steam Conversion Efficiency
   9458 !     80.7272,                 !- Total Carbon Equivalent Emission Factor From N2O {kg/kg}
   9459 !     6.2727,                  !- Total Carbon Equivalent Emission Factor From CH4 {kg/kg}
   9460 !     0.2727;                  !- Total Carbon Equivalent Emission Factor From CO2 {kg/kg}
   9461 !
   9462 ! ! Indiana electricity source and emission factors based on Deru and Torcellini 2007
   9463 !
   9464 !   FuelFactors,
   9465 !     Electricity,             !- Existing Fuel Resource Name
   9466 !     kg,                      !- Units of Measure
   9467 !     ,                        !- Energy per Unit Factor
   9468 !     3.546,                   !- Source Energy Factor {J/J}
   9469 !     ,                        !- Source Energy Schedule Name
   9470 !     3.417E+02,               !- CO2 Emission Factor {g/MJ}
   9471 !     ,                        !- CO2 Emission Factor Schedule Name
   9472 !     1.186E-01,               !- CO Emission Factor {g/MJ}
   9473 !     ,                        !- CO Emission Factor Schedule Name
   9474 !     7.472E-01,               !- CH4 Emission Factor {g/MJ}
   9475 !     ,                        !- CH4 Emission Factor Schedule Name
   9476 !     6.222E-01,               !- NOx Emission Factor {g/MJ}
   9477 !     ,                        !- NOx Emission Factor Schedule Name
   9478 !     8.028E-03,               !- N2O Emission Factor {g/MJ}
   9479 !     ,                        !- N2O Emission Factor Schedule Name
   9480 !     1.872E+00,               !- SO2 Emission Factor {g/MJ}
   9481 !     ,                        !- SO2 Emission Factor Schedule Name
   9482 !     0.0,                     !- PM Emission Factor {g/MJ}
   9483 !     ,                        !- PM Emission Factor Schedule Name
   9484 !     1.739E-02,               !- PM10 Emission Factor {g/MJ}
   9485 !     ,                        !- PM10 Emission Factor Schedule Name
   9486 !     0.0,                     !- PM2.5 Emission Factor {g/MJ}
   9487 !     ,                        !- PM2.5 Emission Factor Schedule Name
   9488 !     0.0,                     !- NH3 Emission Factor {g/MJ}
   9489 !     ,                        !- NH3 Emission Factor Schedule Name
   9490 !     1.019E-02,               !- NMVOC Emission Factor {g/MJ}
   9491 !     ,                        !- NMVOC Emission Factor Schedule Name
   9492 !     5.639E-06,               !- Hg Emission Factor {g/MJ}
   9493 !     ,                        !- Hg Emission Factor Schedule Name
   9494 !     2.778E-05,               !- Pb Emission Factor {g/MJ}
   9495 !     ,                        !- Pb Emission Factor Schedule Name
   9496 !     0.4309556,               !- Water Emission Factor {L/MJ}
   9497 !     ,                        !- Water Emission Factor Schedule Name
   9498 !     0,                       !- Nuclear High Level Emission Factor {g/MJ}
   9499 !     ,                        !- Nuclear High Level Emission Factor Schedule Name
   9500 !     0;                       !- Nuclear Low Level Emission Factor {m3/MJ}
   9501 !
   9502 ! ! Deru and Torcellini 2007
   9503 ! ! Source Energy and Emission Factors for Energy Use in Buildings
   9504 ! ! NREL/TP-550-38617
   9505 ! ! source factor and Higher Heating Values from Table 5
   9506 ! ! post-combustion emission factors for boiler from Table 9 (with factor of 1000 correction for natural gas)
   9507 !
   9508 !   FuelFactors,
   9509 !     NaturalGas,              !- Existing Fuel Resource Name
   9510 !     m3,                      !- Units of Measure
   9511 !     37631000,                !- Energy per Unit Factor
   9512 !     1.092,                   !- Source Energy Factor {J/J}
   9513 !     ,                        !- Source Energy Schedule Name
   9514 !     5.21E+01,                !- CO2 Emission Factor {g/MJ}
   9515 !     ,                        !- CO2 Emission Factor Schedule Name
   9516 !     3.99E-02,                !- CO Emission Factor {g/MJ}
   9517 !     ,                        !- CO Emission Factor Schedule Name
   9518 !     1.06E-03,                !- CH4 Emission Factor {g/MJ}
   9519 !     ,                        !- CH4 Emission Factor Schedule Name
   9520 !     4.73E-02,                !- NOx Emission Factor {g/MJ}
   9521 !     ,                        !- NOx Emission Factor Schedule Name
   9522 !     1.06E-03,                !- N2O Emission Factor {g/MJ}
   9523 !     ,                        !- N2O Emission Factor Schedule Name
   9524 !     2.68E-04,                !- SO2 Emission Factor {g/MJ}
   9525 !     ,                        !- SO2 Emission Factor Schedule Name
   9526 !     0.0,                     !- PM Emission Factor {g/MJ}
   9527 !     ,                        !- PM Emission Factor Schedule Name
   9528 !     3.59E-03,                !- PM10 Emission Factor {g/MJ}
   9529 !     ,                        !- PM10 Emission Factor Schedule Name
   9530 !     0.0,                     !- PM2.5 Emission Factor {g/MJ}
   9531 !     ,                        !- PM2.5 Emission Factor Schedule Name
   9532 !     0,                       !- NH3 Emission Factor {g/MJ}
   9533 !     ,                        !- NH3 Emission Factor Schedule Name
   9534 !     2.61E-03,                !- NMVOC Emission Factor {g/MJ}
   9535 !     ,                        !- NMVOC Emission Factor Schedule Name
   9536 !     1.11E-07,                !- Hg Emission Factor {g/MJ}
   9537 !     ,                        !- Hg Emission Factor Schedule Name
   9538 !     2.13E-07,                !- Pb Emission Factor {g/MJ}
   9539 !     ,                        !- Pb Emission Factor Schedule Name
   9540 !     0,                       !- Water Emission Factor {L/MJ}
   9541 !     ,                        !- Water Emission Factor Schedule Name
   9542 !     0,                       !- Nuclear High Level Emission Factor {g/MJ}
   9543 !     ,                        !- Nuclear High Level Emission Factor Schedule Name
   9544 !     0;                       !- Nuclear Low Level Emission Factor {m3/MJ}
   9545 
   9546 
   9547 ! *** EMS code to obtain current date and time from E+ ***
   9548 ! Reference: https://groups.google.com/d/msg/bcvtb/g5j9lDPDOSs/LaZCVJiEkjUJ
   9549 ! Modified by Truong X. Nghiem
   9550 
   9551 EnergyManagementSystem:GlobalVariable,
   9552     currentYear;           !- Year: 1900–2100
   9553 
   9554 EnergyManagementSystem:GlobalVariable,
   9555     currentMonth;          !- Month: 1-12
   9556 
   9557 EnergyManagementSystem:GlobalVariable,
   9558     currentDayOfMonth;     !- Day of month (1-31)
   9559 
   9560 EnergyManagementSystem:GlobalVariable,
   9561     currentDayOfWeek;      !- Day of week (1=Sun, 2=Mon,..., 7=Sat)
   9562 
   9563 EnergyManagementSystem:GlobalVariable,
   9564     currentTimeOfDay;      !- Current time of day: 0.0 - 24.0 (fractional hours)
   9565                            !- Another option is using Hour and Minute separately
   9566 
   9567 EnergyManagementSystem:GlobalVariable,
   9568     currentHoliday;        !- If current day is a holiday
   9569                            !- 0 if not. 1.0, 2.0, etc., for each type of holiday in model
   9570 
   9571 EnergyManagementSystem:Program,
   9572     GetTimelag,            !- Name
   9573     SET currentYear = Year,
   9574     SET currentMonth = Month,
   9575     SET currentDayOfMonth = DayOfMonth,
   9576     SET currentDayOfWeek = DayOfWeek,
   9577     SET currentTimeOfDay = CurrentTime,
   9578     SET currentHoliday = Holiday;
   9579 
   9580 EnergyManagementSystem:ProgramCallingManager,
   9581     GetTimelag_Manager,  !- Name
   9582     AfterPredictorAfterHVACManagers,  !- EnergyPlus Model Calling Point
   9583     GetTimelag ;        !- Program Name 1
   9584 
   9585 EnergyManagementSystem:OutputVariable,
   9586     currentYear,  !- Name
   9587     currentYear,     !- EMS Variable Name
   9588     Averaged,                !- Type of Data in Variable
   9589     ZoneTimeStep;            !- Update Frequency
   9590 
   9591 EnergyManagementSystem:OutputVariable,
   9592     currentMonth,  !- Name
   9593     currentMonth,     !- EMS Variable Name
   9594     Averaged,                !- Type of Data in Variable
   9595     ZoneTimeStep;            !- Update Frequency
   9596 
   9597 EnergyManagementSystem:OutputVariable,
   9598     currentDayOfMonth,  !- Name
   9599     currentDayOfMonth,     !- EMS Variable Name
   9600     Averaged,                !- Type of Data in Variable
   9601     ZoneTimeStep;            !- Update Frequency
   9602 
   9603 EnergyManagementSystem:OutputVariable,
   9604     currentDayOfWeek,  !- Name
   9605     currentDayOfWeek,     !- EMS Variable Name
   9606     Averaged,                !- Type of Data in Variable
   9607     ZoneTimeStep;            !- Update Frequency
   9608 
   9609 EnergyManagementSystem:OutputVariable,
   9610     currentTimeOfDay,  !- Name
   9611     currentTimeOfDay,     !- EMS Variable Name
   9612     Averaged,                !- Type of Data in Variable
   9613     ZoneTimeStep;            !- Update Frequency
   9614 
   9615 EnergyManagementSystem:OutputVariable,
   9616     currentHoliday,  !- Name
   9617     currentHoliday,     !- EMS Variable Name
   9618     Averaged,                !- Type of Data in Variable
   9619     ZoneTimeStep;            !- Update Frequency
   9620 
   9621 ! *** External Interface ***
   9622 !  ExternalInterface,           !- Object to activate the external interface
   9623 !    PtolemyServer;              !- Name of external interface
   9624 
   9625 ExternalInterface:Schedule,
   9626     CW-Loop-Temp-Schedule,   !- Name
   9627     Temperature,             !- Schedule Type Limits Name
   9628     6.7;              !- Initial value
      ***** Tabs eliminated from above line
   9629 
   9630 ! *** Control variables/schedules (for Demand Response)
   9631   !- Cooling setpoint for all zones
   9632   ExternalInterface:Schedule,
   9633     CLGSETP_SCH,                 !- Name
   9634     Temperature,             !- Schedule Type Limits Name
   9635     24;                      !- Initial Value
   9636 
   9637 ExternalInterface:Schedule,
   9638     BLDG_LIGHT_SCH,          !- Name
   9639     Fraction,                !- Schedule Type Limits Name
   9640     0.7;       !- Initial value
      ***** Tabs eliminated from above line
   9641 
   9642 ! *** Output Report Variables (to be reported in output files) ***
   9643 
   9644 ! EMS variables to report time and date
   9645 ! The output file contains the time & date information, except for the year
   9646 ! the day of week and the holiday values. So we only need to export these values.
   9647   ! Output:Variable,EMS,currentYear,TimeStep; !- Zone Average []
   9648   ! Output:Variable,EMS,currentMonth,TimeStep; !- Zone Average []
   9649 Output:Variable,EMS,currentDayOfMonth,TimeStep; !- Zone Average []
   9650 Output:Variable,EMS,currentTimeOfDay,TimeStep; !- Zone Average []
   9651 Output:Variable,EMS,currentDayOfWeek,TimeStep; !- Zone Average []
   9652 Output:Variable,EMS,currentHoliday,TimeStep; !- Zone Average []
   9653 
   9654   Output:Variable,Whole Building,Facility Total Electric Demand Power,TimeStep;  ! Electricity demand of the entire plant
   9655 
   9656   Output:Variable,Whole Building,Facility Total Building Electric Demand Power,TimeStep;  ! Electricity demand of the non-HVAC (e.g. lighting) component of the plant
   9657 
   9658   Output:Variable,Whole Building,Facility Total HVAC Electric Demand Power,TimeStep;  ! Electricity demand of the HVAC component of the plant
   9659 
   9660 ! Output:Variable,*,Zone Thermal Comfort Fanger Model PMV,TimeStep;  ! PMV indices for the zones
   9661 
   9662 Output:Variable,CoolSys1 Chiller 1,Chiller Evaporator Outlet Temperature,TimeStep;
   9663 Output:Variable,CoolSys1 Chiller 2,Chiller Evaporator Outlet Temperature,TimeStep;
   9664 Output:Variable,HeatSys1 Boiler,Boiler Outlet Temperature,TimeStep;
   9665 
   9666 Output:Variable,Environment,Site Wind Speed,timestep;
   9667 Output:Variable,Environment,Site Wind Direction,timestep;
   9668 Output:Variable,Environment,Site Outdoor Air Relative Humidity,TimeStep;
   9669 Output:Variable,Environment,Site Outdoor Air Drybulb Temperature,TimeStep;
   9670 Output:Variable,Environment,Site Outdoor Air Wetbulb Temperature,timestep;
   9671 
   9672 
   9673 Output:Variable,HTGSETP_SCH,Schedule Value,TimeStep;
   9674 Output:Variable,CLGSETP_SCH,Schedule Value,TimeStep;
   9675 Output:Variable,CW-Loop-Temp-Schedule,Schedule Value,TimeStep;
   9676 Output:Variable,HW-Loop-Temp-Schedule,Schedule Value,TimeStep;
   9677 Output:Variable,BLDG_LIGHT_SCH,Schedule Value,TimeStep;
   9678 
   9679 
   9680 ! Basement
   9681 ! Core_bottom
   9682 ! Core_mid (mult=10)
   9683 ! Core_top
   9684 ! GroundFloor_Plenum
   9685 ! MidFloor_Plenum (mult=10)
   9686 ! Perimeter_bot_ZN_1
   9687 ! Perimeter_bot_ZN_2
   9688 ! Perimeter_bot_ZN_3
   9689 ! Perimeter_bot_ZN_4
   9690 ! Perimeter_mid_ZN_1 (mult=10)
   9691 ! Perimeter_mid_ZN_2 (mult=10)
   9692 ! Perimeter_mid_ZN_3 (mult=10)
   9693 ! Perimeter_mid_ZN_4 (mult=10)
   9694 ! Perimeter_top_ZN_1
   9695 ! Perimeter_top_ZN_2
   9696 ! Perimeter_top_ZN_3
   9697 ! Perimeter_top_ZN_4
   9698 ! TopFloor_Plenum
   9699 
   9700 Output:Variable,Basement,Zone Air Temperature,TimeStep;
   9701 Output:Variable,Core_bottom,Zone Air Temperature,TimeStep;
   9702 Output:Variable,Core_mid,Zone Air Temperature,TimeStep;
   9703 Output:Variable,Core_top,Zone Air Temperature,TimeStep;
   9704 Output:Variable,GroundFloor_Plenum,Zone Air Temperature,TimeStep;
   9705 Output:Variable,MidFloor_Plenum,Zone Air Temperature,TimeStep;
   9706 Output:Variable,Perimeter_bot_ZN_1,Zone Air Temperature,TimeStep;
   9707 Output:Variable,Perimeter_bot_ZN_2,Zone Air Temperature,TimeStep;
   9708 Output:Variable,Perimeter_bot_ZN_3,Zone Air Temperature,TimeStep;
   9709 Output:Variable,Perimeter_bot_ZN_4,Zone Air Temperature,TimeStep;
   9710 Output:Variable,Perimeter_mid_ZN_1,Zone Air Temperature,TimeStep;
   9711 Output:Variable,Perimeter_mid_ZN_2,Zone Air Temperature,TimeStep;
   9712 Output:Variable,Perimeter_mid_ZN_3,Zone Air Temperature,TimeStep;
   9713 Output:Variable,Perimeter_mid_ZN_4,Zone Air Temperature,TimeStep;
   9714 Output:Variable,Perimeter_top_ZN_1,Zone Air Temperature,TimeStep;
   9715 Output:Variable,Perimeter_top_ZN_2,Zone Air Temperature,TimeStep;
   9716 Output:Variable,Perimeter_top_ZN_3,Zone Air Temperature,TimeStep;
   9717 Output:Variable,Perimeter_top_ZN_4,Zone Air Temperature,TimeStep;
   9718 Output:Variable,TopFloor_Plenum,Zone Air Temperature,TimeStep;
   9719 
   9720 Output:SQLite, Simple;
  Processing Input Data File (in.idf) -- Complete
  Maximum number of Alpha IDF Args=          94
  Maximum number of Numeric IDF Args=          22
  Number of IDF "Lines"=         816
  Number of Defaulted Fields=         314
  Number of Fields with Defaults=        2136
  Number of Autosized Fields=         182
  Number of Autosizable Fields =         248
  Number of Autocalculated Fields=         253
  Number of Autocalculatable Fields =         396
 Getting object=OUTPUT:SQLITE
 Getting object=VERSION
 Getting object=HEATBALANCEALGORITHM
 Getting object=TIMESTEP
 Getting object=CONVERGENCELIMITS
 Getting object=OUTPUTCONTROL:REPORTINGTOLERANCES
 Getting object=SIMULATIONCONTROL
 Getting object=BRANCH
 Getting object=CURVE:BIQUADRATIC
 Getting object=CURVE:BICUBIC
 Getting object=NODELIST
 Getting object=BRANCHLIST
 Getting object=DESIGNSPECIFICATION:OUTDOORAIR
 Getting object=SIZING:PARAMETERS
 Getting object=ZONE
 Getting object=SIZING:ZONE
 Getting object=SIZING:SYSTEM
 Getting object=SIZING:PLANT
 Getting object=OUTPUT:VARIABLE
 Getting object=SIZINGPERIOD:DESIGNDAY
 Getting object=RUNPERIOD
 Getting object=RUNPERIODCONTROL:SPECIALDAYS
 Getting object=RUNPERIODCONTROL:DAYLIGHTSAVINGTIME
 Getting object=SITE:LOCATION
 Getting object=SITE:GROUNDTEMPERATURE:BUILDINGSURFACE
 Getting object=SITE:WATERMAINSTEMPERATURE
 Getting object=SCHEDULE:COMPACT
  Processing Schedule Input -- Start
 Getting object=SCHEDULETYPELIMITS
 Getting object=EXTERNALINTERFACE:SCHEDULE
  Processing Schedule Input -- Complete
 Getting object=BUILDING
 Getting object=SURFACECONVECTIONALGORITHM:INSIDE
 Getting object=SURFACECONVECTIONALGORITHM:OUTSIDE
 Getting object=ZONEAIRHEATBALANCEALGORITHM
 Getting object=MATERIAL
 Getting object=MATERIAL:NOMASS
 Getting object=WINDOWMATERIAL:SIMPLEGLAZINGSYSTEM
 Getting object=CONSTRUCTION
 Getting object=GLOBALGEOMETRYRULES
 Getting object=BUILDINGSURFACE:DETAILED
 Getting object=FENESTRATIONSURFACE:DETAILED
 Getting object=INTERNALMASS
 Getting object=PEOPLE
 Getting object=LIGHTS
 Getting object=ELECTRICEQUIPMENT
 Getting object=SHADOWCALCULATION
 Getting object=WATERHEATER:MIXED
 Getting object=ZONEINFILTRATION:DESIGNFLOWRATE
 Getting object=ENERGYMANAGEMENTSYSTEM:GLOBALVARIABLE
 Getting object=ENERGYMANAGEMENTSYSTEM:PROGRAM
 Getting object=ENERGYMANAGEMENTSYSTEM:OUTPUTVARIABLE
 Getting object=ENERGYMANAGEMENTSYSTEM:PROGRAMCALLINGMANAGER
 Getting object=OUTDOORAIR:NODELIST
 Getting object=OUTDOORAIR:NODE
 Getting object=ZONECONTROL:THERMOSTAT
 Getting object=THERMOSTATSETPOINT:DUALSETPOINT
 Getting object=SETPOINTMANAGER:SCHEDULED
 Getting object=SETPOINTMANAGER:MIXEDAIR
 Getting object=SETPOINTMANAGER:FOLLOWOUTDOORAIRTEMPERATURE
 Getting object=PLANTLOOP
 Getting object=AVAILABILITYMANAGER:NIGHTCYCLE
 Getting object=AVAILABILITYMANAGERASSIGNMENTLIST
 Getting object=CONDENSERLOOP
 Getting object=CONNECTORLIST
 Getting object=CONNECTOR:SPLITTER
 Getting object=CONNECTOR:MIXER
 Getting object=ZONEHVAC:EQUIPMENTCONNECTIONS
 Getting object=ZONEHVAC:EQUIPMENTLIST
 Getting object=AIRLOOPHVAC:SUPPLYPATH
 Getting object=AIRLOOPHVAC:RETURNPATH
 Getting object=WATERUSE:EQUIPMENT
 Getting object=WATERUSE:CONNECTIONS
 Getting object=AIRLOOPHVAC:ZONESPLITTER
 Getting object=ZONEHVAC:AIRDISTRIBUTIONUNIT
 Getting object=AIRTERMINAL:SINGLEDUCT:VAV:REHEAT
 Getting object=COIL:HEATING:WATER
 Getting object=COIL:COOLING:WATER
 Getting object=AIRLOOPHVAC:RETURNPLENUM
 Getting object=AIRLOOPHVAC:ZONEMIXER
 Getting object=AIRLOOPHVAC
 Getting object=AIRLOOPHVAC:CONTROLLERLIST
 Getting object=AIRLOOPHVAC:OUTDOORAIRSYSTEM
 Getting object=AIRLOOPHVAC:OUTDOORAIRSYSTEM:EQUIPMENTLIST
 Getting object=OUTDOORAIR:MIXER
 Getting object=CONTROLLER:WATERCOIL
 Getting object=EXTERIOR:LIGHTS
 Getting object=EXTERIOR:FUELEQUIPMENT
 Getting object=CONTROLLER:OUTDOORAIR
 Getting object=FAN:VARIABLEVOLUME
 Getting object=PIPE:ADIABATIC
 Getting object=CHILLER:ELECTRIC:REFORMULATEDEIR
 Getting object=BOILER:HOTWATER
 Getting object=COOLINGTOWER:SINGLESPEED
 Getting object=PLANTEQUIPMENTOPERATIONSCHEMES
 Getting object=CONDENSEREQUIPMENTOPERATIONSCHEMES
 Getting object=PLANTEQUIPMENTOPERATION:COOLINGLOAD
 Getting object=PLANTEQUIPMENTOPERATION:HEATINGLOAD
 Getting object=PLANTEQUIPMENTLIST
 Getting object=CONDENSEREQUIPMENTLIST
 Getting object=PUMP:VARIABLESPEED
 Getting object=PUMP:CONSTANTSPEED
 Getting object=EXTERNALINTERFACE
