Program Version,EnergyPlus-Linux-64 8.1.0.008, YMD=2016.11.21 21:47
! <Version>, Version ID
 Version, 8.1
! <Timesteps per Hour>, #TimeSteps, Minutes per TimeStep {minutes}
 Timesteps per Hour, 12,  5
! <System Convergence Limits>, Minimum System TimeStep {minutes}, Max HVAC Iterations,  Minimum Plant Iterations, Maximum Plant Iterations
 System Convergence Limits, 2, 25, 2, 8
! <Simulation Control>, Do Zone Sizing, Do System Sizing, Do Plant Sizing, Do Design Days, Do Weather Simulation
 Simulation Control, Yes, Yes, Yes, No, Yes
! <Output Reporting Tolerances>, Tolerance for Time Heating Setpoint Not Met, Tolerance for Zone Cooling Setpoint Not Met Time
 Output Reporting Tolerances, 0.556, 0.556, 
! <Site:GroundTemperature:BuildingSurface>, Months From Jan to Dec {C}
 Site:GroundTemperature:BuildingSurface,  19.53,  19.50,  19.54,  19.60,  20.00,  21.64,  22.23,  22.38,  21.45,  20.12,  19.80,  19.63
! <Site:GroundTemperature:Shallow>, Months From Jan to Dec {C}
 Site:GroundTemperature:Shallow,  13.00,  13.00,  13.00,  13.00,  13.00,  13.00,  13.00,  13.00,  13.00,  13.00,  13.00,  13.00
! <Site:GroundTemperature:Deep>, Months From Jan to Dec {C}
 Site:GroundTemperature:Deep,  16.00,  16.00,  16.00,  16.00,  16.00,  16.00,  16.00,  16.00,  16.00,  16.00,  16.00,  16.00
! <Site:GroundReflectance>, Months From Jan to Dec {dimensionless}
 Site:GroundReflectance,  0.20,  0.20,  0.20,  0.20,  0.20,  0.20,  0.20,  0.20,  0.20,  0.20,  0.20,  0.20
! <Site:GroundReflectance:SnowModifier>, Normal, Daylighting {dimensionless}
 Site:GroundReflectance:SnowModifier,   1.000,   1.000
! <Site:GroundReflectance:Snow>, Months From Jan to Dec {dimensionless}
 Site:GroundReflectance:Snow,  0.20,  0.20,  0.20,  0.20,  0.20,  0.20,  0.20,  0.20,  0.20,  0.20,  0.20,  0.20
! <Site:GroundReflectance:Snow:Daylighting>, Months From Jan to Dec {dimensionless}
 Site:GroundReflectance:Snow:Daylighting,  0.20,  0.20,  0.20,  0.20,  0.20,  0.20,  0.20,  0.20,  0.20,  0.20,  0.20,  0.20
! <Environment:Weather Station>,Wind Sensor Height Above Ground {m},Wind Speed Profile Exponent {},Wind Speed Profile Boundary Layer Thickness {m},Air Temperature Sensor Height Above Ground {m},Wind Speed Modifier Coefficient [Internal],Temperature Modifier Coefficient [Internal]
Environment:Weather Station,10.000,0.140,270.000,1.500,1.586,9.750E-003
! <Site:Location>, Location Name, Latitude {N+/S- Deg}, Longitude {E+/W- Deg},  Time Zone Number {GMT+/-}, Elevation {m},  Standard Pressure at Elevation {Pa}, Standard RhoAir at Elevation
Site:Location,587017 587017 587017 TMY2 WMO#=587017,41.99,-87.50,-6.00,172.00,99276,1.1800
! <Building Information>, Building Name,North Axis {deg},Terrain,  Loads Convergence Tolerance Value,Temperature Convergence Tolerance Value,  Solar Distribution,Maximum Number of Warmup Days,Minimum Number of Warmup Days
 Building Information,Ref Bldg Large Office New2004_v1.3_5.0,0.000,City,4.00000E-002,0.20000,FullInteriorAndExterior,25,6
! <Inside Convection Algorithm>, Algorithm {Simple | TARP | CeilingDiffuser | AdaptiveConvectionAlgorithm}
Inside Convection Algorithm,TARP
! <Outside Convection Algorithm>, Algorithm {SimpleCombined | TARP | MoWitt | DOE-2 | AdaptiveConvectionAlgorithm}
Outside Convection Algorithm,DOE-2
! <Sky Radiance Distribution>, Value {Anisotropic}
Sky Radiance Distribution,Anisotropic
! <Zone Air Solution Algorithm>, Value {ThirdOrderBackwardDifference | AnalyticalSolution | EulerMethod}
 Zone Air Solution Algorithm, AnalyticalSolution
! <Zone Air Contaminant Balance Simulation>, Simulation {Yes/No}, Carbon Dioxide Concentration
 Zone Air Carbon Dioxide Balance Simulation, No,N/A
! <Zone Air Contaminant Balance Simulation>, Simulation {Yes/No}, Generic Contaminant Concentration
 Zone Air Generic Contaminant Balance Simulation, No,N/A
! <Environment:Site Atmospheric Variation>,Wind Speed Profile Exponent {},Wind Speed Profile Boundary Layer Thickness {m},Air Temperature Gradient Coefficient {K/m}
Environment:Site Atmospheric Variation,0.330,460.000,6.500000E-003
! <SurfaceGeometry>,Starting Corner,Vertex Input Direction,Coordinate System,Daylight Reference Point Coordinate System,Rectangular (Simple) Surface Coordinate System
 Surface Geometry,UpperLeftCorner,Counterclockwise,RelativeCoordinateSystem,RelativeCoordinateSystem,RelativeToZoneOrigin
! <Surface Heat Transfer Algorithm>, Value {CTF - ConductionTransferFunction | EMPD - MoisturePenetrationDepthConductionTransferFunction | CondFD - ConductionFiniteDifference | HAMT - CombinedHeatAndMoistureFiniteElement} - Description,Inside Surface Max Temperature Limit{C}, Surface Convection Coefficient Lower Limit {W/m2-K}, Surface Convection Coefficient Upper Limit {W/m2-K}
Surface Heat Transfer Algorithm, CTF - ConductionTransferFunction,200,0.10,1000.0
! <Shading Summary>, Number of Fixed Detached Shades, Number of Building Detached Shades, Number of Attached Shades
 Shading Summary,0,0,0
! <Zone Summary>, Number of Zones, Number of Zone Surfaces, Number of SubSurfaces
 Zone Summary,19,158,12
! <Zone Information>,Zone Name,North Axis {deg},Origin X-Coordinate {m},Origin Y-Coordinate {m},Origin Z-Coordinate {m},Centroid X-Coordinate {m},Centroid Y-Coordinate {m},Centroid Z-Coordinate {m},Type,Zone Multiplier,Zone List Multiplier,Minimum X {m},Maximum X {m},Minimum Y {m},Maximum Y {m},Minimum Z {m},Maximum Z {m},Ceiling Height {m},Volume {m3},Zone Inside Convection Algorithm {Simple-Detailed-CeilingDiffuser-TrombeWall},Zone Outside Convection Algorithm {Simple-Detailed-Tarp-MoWitt-DOE-2-BLAST}, Floor Area {m2},Exterior Gross Wall Area {m2},Exterior Net Wall Area {m2},Exterior Window Area {m2}, Number of Surfaces, Number of SubSurfaces, Number of Shading SubSurfaces,  Part of Total Building Area
 Zone Information, BASEMENT,0.0,0.00,4.00E-002,0.20,36.55,24.41,-1.02,1,1,1,0.00,73.11,4.00E-002,48.78,-2.24,0.20,2.44,8690.42,TARP,DOE-2,3563.11,0.00,0.00,0.00,10,0,0,Yes
 Zone Information, CORE_BOTTOM,0.0,0.00,0.00,0.00,36.55,24.37,1.37,1,1,1,4.57,68.53,4.57,44.17,0.00,2.74,2.74,6948.69,TARP,DOE-2,2532.32,0.00,0.00,0.00,6,0,0,Yes
 Zone Information, CORE_MID,0.0,0.00,0.00,0.00,36.55,24.37,21.19,1,10,1,4.57,68.53,4.57,44.17,19.82,22.56,2.74,6948.69,TARP,DOE-2,2532.32,0.00,0.00,0.00,6,0,0,Yes
 Zone Information, CORE_TOP,0.0,0.00,0.00,0.00,36.55,24.37,44.97,1,1,1,4.57,68.53,4.57,44.17,43.60,46.34,2.74,6948.69,TARP,DOE-2,2532.32,0.00,0.00,0.00,6,0,0,Yes
 Zone Information, GROUNDFLOOR_PLENUM,0.0,0.00,0.00,0.00,36.55,24.37,3.35,1,1,1,0.00,73.11,0.00,48.74,2.74,3.96,1.22,4344.14,TARP,DOE-2,3563.11,297.11,297.11,0.00,10,0,0,No
 Zone Information, MIDFLOOR_PLENUM,0.0,0.00,0.00,0.00,36.55,24.37,23.17,1,10,1,0.00,73.11,0.00,48.74,22.56,23.78,1.22,4344.14,TARP,DOE-2,3563.11,297.11,297.11,0.00,10,0,0,No
 Zone Information, PERIMETER_BOT_ZN_1,0.0,0.00,0.00,0.00,36.55,2.20,1.37,1,1,1,0.00,73.11,0.00,4.57,0.00,2.74,2.74,860.02,TARP,DOE-2,313.42,200.61,84.70,115.90,6,1,0,Yes
 Zone Information, PERIMETER_BOT_ZN_2,0.0,0.00,0.00,0.00,70.95,24.37,1.37,1,1,1,68.53,73.11,0.00,48.74,0.00,2.74,2.74,554.22,TARP,DOE-2,201.98,133.74,56.47,77.27,6,1,0,Yes
 Zone Information, PERIMETER_BOT_ZN_3,0.0,0.00,0.00,0.00,36.55,46.54,1.37,1,1,1,0.00,73.11,44.17,48.74,0.00,2.74,2.74,860.00,TARP,DOE-2,313.41,200.61,84.70,115.90,6,1,0,Yes
 Zone Information, PERIMETER_BOT_ZN_4,0.0,0.00,0.00,0.00,2.16,24.37,1.37,1,1,1,0.00,4.57,0.00,48.74,0.00,2.74,2.74,554.22,TARP,DOE-2,201.98,133.74,56.47,77.27,6,1,0,Yes
 Zone Information, PERIMETER_MID_ZN_1,0.0,0.00,0.00,0.00,36.55,2.20,21.19,1,10,1,0.00,73.11,0.00,4.57,19.82,22.56,2.74,860.02,TARP,DOE-2,313.42,200.61,84.70,115.90,6,1,0,Yes
 Zone Information, PERIMETER_MID_ZN_2,0.0,0.00,0.00,0.00,70.95,24.37,21.19,1,10,1,68.53,73.11,0.00,48.74,19.82,22.56,2.74,554.22,TARP,DOE-2,201.98,133.74,56.47,77.27,6,1,0,Yes
 Zone Information, PERIMETER_MID_ZN_3,0.0,0.00,0.00,0.00,36.55,46.54,21.19,1,10,1,0.00,73.11,44.17,48.74,19.82,22.56,2.74,860.00,TARP,DOE-2,313.41,200.61,84.70,115.90,6,1,0,Yes
 Zone Information, PERIMETER_MID_ZN_4,0.0,0.00,0.00,0.00,2.16,24.37,21.19,1,10,1,0.00,4.57,0.00,48.74,19.82,22.56,2.74,554.22,TARP,DOE-2,201.98,133.74,56.47,77.27,6,1,0,Yes
 Zone Information, PERIMETER_TOP_ZN_1,0.0,0.00,0.00,0.00,36.55,2.20,44.97,1,1,1,0.00,73.11,0.00,4.57,43.60,46.34,2.74,860.02,TARP,DOE-2,313.42,200.61,84.70,115.90,6,1,0,Yes
 Zone Information, PERIMETER_TOP_ZN_2,0.0,0.00,0.00,0.00,70.95,24.37,44.97,1,1,1,68.53,73.11,0.00,48.74,43.60,46.34,2.74,554.22,TARP,DOE-2,201.98,133.74,56.47,77.27,6,1,0,Yes
 Zone Information, PERIMETER_TOP_ZN_3,0.0,0.00,0.00,0.00,36.55,46.54,44.97,1,1,1,0.00,73.11,44.17,48.74,43.60,46.34,2.74,860.00,TARP,DOE-2,313.41,200.61,84.70,115.90,6,1,0,Yes
 Zone Information, PERIMETER_TOP_ZN_4,0.0,0.00,0.00,0.00,2.16,24.37,44.97,1,1,1,0.00,4.57,0.00,48.74,43.60,46.34,2.74,554.22,TARP,DOE-2,201.98,133.74,56.47,77.27,6,1,0,Yes
 Zone Information, TOPFLOOR_PLENUM,0.0,0.00,0.00,0.00,36.55,24.37,46.95,1,1,1,0.00,73.11,0.00,48.74,46.34,47.56,1.22,4344.14,TARP,DOE-2,3563.11,297.11,297.11,0.00,10,0,0,No
! <Zone Internal Gains/Equipment Information - Nominal>,Zone Name, Floor Area {m2},# Occupants,Area per Occupant {m2/person},Occupant per Area {person/m2},Interior Lighting {W/m2},Electric Load {W/m2},Gas Load {W/m2},Other Load {W/m2},Hot Water Eq {W/m2},Steam Equipment {W/m2},Sum Loads per Area {W/m2},Outdoor Controlled Baseboard Heat
 Zone Internal Gains, BASEMENT,3563.11,95.9,37.160,2.691E-002,10.760,10.760,0.000,0.000,0.000,0.000,21.520,No
 Zone Internal Gains, CORE_BOTTOM,2532.32,136.3,18.580,5.382E-002,10.760,10.760,0.000,0.000,0.000,0.000,21.520,No
 Zone Internal Gains, CORE_MID,2532.32,136.3,18.580,5.382E-002,10.760,10.760,0.000,0.000,0.000,0.000,21.520,No
 Zone Internal Gains, CORE_TOP,2532.32,136.3,18.580,5.382E-002,10.760,10.760,0.000,0.000,0.000,0.000,21.520,No
 Zone Internal Gains, GROUNDFLOOR_PLENUM,3563.11,0.0,N/A,0.000,0.000,0.000,0.000,0.000,0.000,0.000,0.000,No
 Zone Internal Gains, MIDFLOOR_PLENUM,3563.11,0.0,N/A,0.000,0.000,0.000,0.000,0.000,0.000,0.000,0.000,No
 Zone Internal Gains, PERIMETER_BOT_ZN_1,313.42,16.9,18.580,5.382E-002,10.760,10.760,0.000,0.000,0.000,0.000,21.520,No
 Zone Internal Gains, PERIMETER_BOT_ZN_2,201.98,10.9,18.580,5.382E-002,10.760,10.760,0.000,0.000,0.000,0.000,21.520,No
 Zone Internal Gains, PERIMETER_BOT_ZN_3,313.41,16.9,18.580,5.382E-002,10.760,10.760,0.000,0.000,0.000,0.000,21.520,No
 Zone Internal Gains, PERIMETER_BOT_ZN_4,201.98,10.9,18.580,5.382E-002,10.760,10.760,0.000,0.000,0.000,0.000,21.520,No
 Zone Internal Gains, PERIMETER_MID_ZN_1,313.42,16.9,18.580,5.382E-002,10.760,10.760,0.000,0.000,0.000,0.000,21.520,No
 Zone Internal Gains, PERIMETER_MID_ZN_2,201.98,10.9,18.580,5.382E-002,10.760,10.760,0.000,0.000,0.000,0.000,21.520,No
 Zone Internal Gains, PERIMETER_MID_ZN_3,313.41,16.9,18.580,5.382E-002,10.760,10.760,0.000,0.000,0.000,0.000,21.520,No
 Zone Internal Gains, PERIMETER_MID_ZN_4,201.98,10.9,18.580,5.382E-002,10.760,10.760,0.000,0.000,0.000,0.000,21.520,No
 Zone Internal Gains, PERIMETER_TOP_ZN_1,313.42,16.9,18.580,5.382E-002,10.760,10.760,0.000,0.000,0.000,0.000,21.520,No
 Zone Internal Gains, PERIMETER_TOP_ZN_2,201.98,10.9,18.580,5.382E-002,10.760,10.760,0.000,0.000,0.000,0.000,21.520,No
 Zone Internal Gains, PERIMETER_TOP_ZN_3,313.41,16.9,18.580,5.382E-002,10.760,10.760,0.000,0.000,0.000,0.000,21.520,No
 Zone Internal Gains, PERIMETER_TOP_ZN_4,201.98,10.9,18.580,5.382E-002,10.760,10.760,0.000,0.000,0.000,0.000,21.520,No
 Zone Internal Gains, TOPFLOOR_PLENUM,3563.11,0.0,N/A,0.000,0.000,0.000,0.000,0.000,0.000,0.000,0.000,No
! <People Internal Gains - Nominal>,Name,Schedule Name,Zone Name,Zone Floor Area {m2},# Zone Occupants,Number of People {},People/Floor Area {person/m2},Floor Area per person {m2/person},Fraction Radiant,Fraction Convected,Sensible Fraction Calculation,Activity level,ASHRAE 55 Warnings,Carbon Dioxide Generation Rate,Nominal Minimum Number of People,Nominal Maximum Number of People,MRT Calculation Type,Work Efficiency, Clothing Insulation Calculation Method,Clothing Insulation Calculation Method Schedule,Clothing,Air Velocity,Fanger Calculation,Pierce Calculation,KSU Calculation
 People Internal Gains, BASEMENT PEOPLE,BLDG_OCC_SCH,BASEMENT,3563.11,95.9,95.9,2.691E-002,37.160,0.300,0.700,AutoCalculate,ACTIVITY_SCH,No,3.8200E-008,0,96,Zone Averaged,WORK_EFF_SCH,Clothing Insulation Schedule,N/A,CLOTHING_SCH,AIR_VELO_SCH,Yes,No,No
 People Internal Gains, CORE_BOTTOM PEOPLE,BLDG_OCC_SCH,CORE_BOTTOM,2532.32,136.3,136.3,5.382E-002,18.580,0.300,0.700,AutoCalculate,ACTIVITY_SCH,No,3.8200E-008,0,136,Zone Averaged,WORK_EFF_SCH,Clothing Insulation Schedule,N/A,CLOTHING_SCH,AIR_VELO_SCH,Yes,No,No
 People Internal Gains, CORE_MID PEOPLE,BLDG_OCC_SCH,CORE_MID,2532.32,136.3,136.3,5.382E-002,18.580,0.300,0.700,AutoCalculate,ACTIVITY_SCH,No,3.8200E-008,0,136,Zone Averaged,WORK_EFF_SCH,Clothing Insulation Schedule,N/A,CLOTHING_SCH,AIR_VELO_SCH,Yes,No,No
 People Internal Gains, CORE_TOP PEOPLE,BLDG_OCC_SCH,CORE_TOP,2532.32,136.3,136.3,5.382E-002,18.580,0.300,0.700,AutoCalculate,ACTIVITY_SCH,No,3.8200E-008,0,136,Zone Averaged,WORK_EFF_SCH,Clothing Insulation Schedule,N/A,CLOTHING_SCH,AIR_VELO_SCH,Yes,No,No
 People Internal Gains, PERIMETER_BOT_ZN_1 PEOPLE,BLDG_OCC_SCH,PERIMETER_BOT_ZN_1,313.42,16.9,16.9,5.382E-002,18.580,0.300,0.700,AutoCalculate,ACTIVITY_SCH,No,3.8200E-008,0,17,Zone Averaged,WORK_EFF_SCH,Clothing Insulation Schedule,N/A,CLOTHING_SCH,AIR_VELO_SCH,Yes,No,No
 People Internal Gains, PERIMETER_BOT_ZN_2 PEOPLE,BLDG_OCC_SCH,PERIMETER_BOT_ZN_2,201.98,10.9,10.9,5.382E-002,18.580,0.300,0.700,AutoCalculate,ACTIVITY_SCH,No,3.8200E-008,0,11,Zone Averaged,WORK_EFF_SCH,Clothing Insulation Schedule,N/A,CLOTHING_SCH,AIR_VELO_SCH,Yes,No,No
 People Internal Gains, PERIMETER_BOT_ZN_3 PEOPLE,BLDG_OCC_SCH,PERIMETER_BOT_ZN_3,313.41,16.9,16.9,5.382E-002,18.580,0.300,0.700,AutoCalculate,ACTIVITY_SCH,No,3.8200E-008,0,17,Zone Averaged,WORK_EFF_SCH,Clothing Insulation Schedule,N/A,CLOTHING_SCH,AIR_VELO_SCH,Yes,No,No
 People Internal Gains, PERIMETER_BOT_ZN_4 PEOPLE,BLDG_OCC_SCH,PERIMETER_BOT_ZN_4,201.98,10.9,10.9,5.382E-002,18.580,0.300,0.700,AutoCalculate,ACTIVITY_SCH,No,3.8200E-008,0,11,Zone Averaged,WORK_EFF_SCH,Clothing Insulation Schedule,N/A,CLOTHING_SCH,AIR_VELO_SCH,Yes,No,No
 People Internal Gains, PERIMETER_MID_ZN_1 PEOPLE,BLDG_OCC_SCH,PERIMETER_MID_ZN_1,313.42,16.9,16.9,5.382E-002,18.580,0.300,0.700,AutoCalculate,ACTIVITY_SCH,No,3.8200E-008,0,17,Zone Averaged,WORK_EFF_SCH,Clothing Insulation Schedule,N/A,CLOTHING_SCH,AIR_VELO_SCH,Yes,No,No
 People Internal Gains, PERIMETER_MID_ZN_2 PEOPLE,BLDG_OCC_SCH,PERIMETER_MID_ZN_2,201.98,10.9,10.9,5.382E-002,18.580,0.300,0.700,AutoCalculate,ACTIVITY_SCH,No,3.8200E-008,0,11,Zone Averaged,WORK_EFF_SCH,Clothing Insulation Schedule,N/A,CLOTHING_SCH,AIR_VELO_SCH,Yes,No,No
 People Internal Gains, PERIMETER_MID_ZN_3 PEOPLE,BLDG_OCC_SCH,PERIMETER_MID_ZN_3,313.41,16.9,16.9,5.382E-002,18.580,0.300,0.700,AutoCalculate,ACTIVITY_SCH,No,3.8200E-008,0,17,Zone Averaged,WORK_EFF_SCH,Clothing Insulation Schedule,N/A,CLOTHING_SCH,AIR_VELO_SCH,Yes,No,No
 People Internal Gains, PERIMETER_MID_ZN_4 PEOPLE,BLDG_OCC_SCH,PERIMETER_MID_ZN_4,201.98,10.9,10.9,5.382E-002,18.580,0.300,0.700,AutoCalculate,ACTIVITY_SCH,No,3.8200E-008,0,11,Zone Averaged,WORK_EFF_SCH,Clothing Insulation Schedule,N/A,CLOTHING_SCH,AIR_VELO_SCH,Yes,No,No
 People Internal Gains, PERIMETER_TOP_ZN_1 PEOPLE,BLDG_OCC_SCH,PERIMETER_TOP_ZN_1,313.42,16.9,16.9,5.382E-002,18.580,0.300,0.700,AutoCalculate,ACTIVITY_SCH,No,3.8200E-008,0,17,Zone Averaged,WORK_EFF_SCH,Clothing Insulation Schedule,N/A,CLOTHING_SCH,AIR_VELO_SCH,Yes,No,No
 People Internal Gains, PERIMETER_TOP_ZN_2 PEOPLE,BLDG_OCC_SCH,PERIMETER_TOP_ZN_2,201.98,10.9,10.9,5.382E-002,18.580,0.300,0.700,AutoCalculate,ACTIVITY_SCH,No,3.8200E-008,0,11,Zone Averaged,WORK_EFF_SCH,Clothing Insulation Schedule,N/A,CLOTHING_SCH,AIR_VELO_SCH,Yes,No,No
 People Internal Gains, PERIMETER_TOP_ZN_3 PEOPLE,BLDG_OCC_SCH,PERIMETER_TOP_ZN_3,313.41,16.9,16.9,5.382E-002,18.580,0.300,0.700,AutoCalculate,ACTIVITY_SCH,No,3.8200E-008,0,17,Zone Averaged,WORK_EFF_SCH,Clothing Insulation Schedule,N/A,CLOTHING_SCH,AIR_VELO_SCH,Yes,No,No
 People Internal Gains, PERIMETER_TOP_ZN_4 PEOPLE,BLDG_OCC_SCH,PERIMETER_TOP_ZN_4,201.98,10.9,10.9,5.382E-002,18.580,0.300,0.700,AutoCalculate,ACTIVITY_SCH,No,3.8200E-008,0,11,Zone Averaged,WORK_EFF_SCH,Clothing Insulation Schedule,N/A,CLOTHING_SCH,AIR_VELO_SCH,Yes,No,No
! <Lights Internal Gains - Nominal>,Name,Schedule Name,Zone Name,Zone Floor Area {m2},# Zone Occupants,Lighting Level {W},Lights/Floor Area {W/m2},Lights per person {W/person},Fraction Return Air,Fraction Radiant,Fraction Short Wave,Fraction Convected,Fraction Replaceable,End-Use Category,Nominal Minimum Lighting Level {W},Nominal Maximum Lighting Level {W}
 Lights Internal Gains, BASEMENT_LIGHTS,BLDG_LIGHT_SCH,BASEMENT,3563.11,95.9,38339.021,10.760,399.842,0.000,0.700,0.200,0.100,1.000,General,26837.315,26837.315
 Lights Internal Gains, CORE_BOTTOM_LIGHTS,BLDG_LIGHT_SCH,CORE_BOTTOM,2532.32,136.3,27247.798,10.760,199.921,0.000,0.700,0.200,0.100,1.000,General,19073.458,19073.458
 Lights Internal Gains, CORE_MID_LIGHTS,BLDG_LIGHT_SCH,CORE_MID,2532.32,136.3,27247.798,10.760,199.921,0.000,0.700,0.200,0.100,1.000,General,19073.458,19073.458
 Lights Internal Gains, CORE_TOP_LIGHTS,BLDG_LIGHT_SCH,CORE_TOP,2532.32,136.3,27247.798,10.760,199.921,0.000,0.700,0.200,0.100,1.000,General,19073.458,19073.458
 Lights Internal Gains, PERIMETER_BOT_ZN_1_LIGHTS,BLDG_LIGHT_SCH,PERIMETER_BOT_ZN_1,313.42,16.9,3372.396,10.760,199.921,0.000,0.700,0.200,0.100,1.000,General,2360.677,2360.677
 Lights Internal Gains, PERIMETER_BOT_ZN_2_LIGHTS,BLDG_LIGHT_SCH,PERIMETER_BOT_ZN_2,201.98,10.9,2173.253,10.760,199.921,0.000,0.700,0.200,0.100,1.000,General,1521.277,1521.277
 Lights Internal Gains, PERIMETER_BOT_ZN_3_LIGHTS,BLDG_LIGHT_SCH,PERIMETER_BOT_ZN_3,313.41,16.9,3372.322,10.760,199.921,0.000,0.700,0.200,0.100,1.000,General,2360.625,2360.625
 Lights Internal Gains, PERIMETER_BOT_ZN_4_LIGHTS,BLDG_LIGHT_SCH,PERIMETER_BOT_ZN_4,201.98,10.9,2173.253,10.760,199.921,0.000,0.700,0.200,0.100,1.000,General,1521.277,1521.277
 Lights Internal Gains, PERIMETER_MID_ZN_1_LIGHTS,BLDG_LIGHT_SCH,PERIMETER_MID_ZN_1,313.42,16.9,3372.396,10.760,199.921,0.000,0.700,0.200,0.100,1.000,General,2360.677,2360.677
 Lights Internal Gains, PERIMETER_MID_ZN_2_LIGHTS,BLDG_LIGHT_SCH,PERIMETER_MID_ZN_2,201.98,10.9,2173.253,10.760,199.921,0.000,0.700,0.200,0.100,1.000,General,1521.277,1521.277
 Lights Internal Gains, PERIMETER_MID_ZN_3_LIGHTS,BLDG_LIGHT_SCH,PERIMETER_MID_ZN_3,313.41,16.9,3372.322,10.760,199.921,0.000,0.700,0.200,0.100,1.000,General,2360.625,2360.625
 Lights Internal Gains, PERIMETER_MID_ZN_4_LIGHTS,BLDG_LIGHT_SCH,PERIMETER_MID_ZN_4,201.98,10.9,2173.253,10.760,199.921,0.000,0.700,0.200,0.100,1.000,General,1521.277,1521.277
 Lights Internal Gains, PERIMETER_TOP_ZN_1_LIGHTS,BLDG_LIGHT_SCH,PERIMETER_TOP_ZN_1,313.42,16.9,3372.396,10.760,199.921,0.000,0.700,0.200,0.100,1.000,General,2360.677,2360.677
 Lights Internal Gains, PERIMETER_TOP_ZN_2_LIGHTS,BLDG_LIGHT_SCH,PERIMETER_TOP_ZN_2,201.98,10.9,2173.253,10.760,199.921,0.000,0.700,0.200,0.100,1.000,General,1521.277,1521.277
 Lights Internal Gains, PERIMETER_TOP_ZN_3_LIGHTS,BLDG_LIGHT_SCH,PERIMETER_TOP_ZN_3,313.41,16.9,3372.322,10.760,199.921,0.000,0.700,0.200,0.100,1.000,General,2360.625,2360.625
 Lights Internal Gains, PERIMETER_TOP_ZN_4_LIGHTS,BLDG_LIGHT_SCH,PERIMETER_TOP_ZN_4,201.98,10.9,2173.253,10.760,199.921,0.000,0.700,0.200,0.100,1.000,General,1521.277,1521.277
! <ElectricEquipment Internal Gains - Nominal>,Name,Schedule Name,Zone Name,Zone Floor Area {m2},# Zone Occupants,Equipment Level {W},Equipment/Floor Area {W/m2},Equipment per person {W/person},Fraction Latent,Fraction Radiant,Fraction Lost,Fraction Convected,End-Use SubCategory,Nominal Minimum Equipment Level {W},Nominal Maximum Equipment Level {W}
 ElectricEquipment Internal Gains, BASEMENT_PLUGMISC_EQUIP,BLDG_EQUIP_SCH,BASEMENT,3563.11,95.9,38339.021,10.760,399.842,0.000,0.500,0.000,0.500,General,0.000,38339.021
 ElectricEquipment Internal Gains, CORE_BOTTOM_PLUGMISC_EQUIP,BLDG_EQUIP_SCH,CORE_BOTTOM,2532.32,136.3,27247.798,10.760,199.921,0.000,0.500,0.000,0.500,General,0.000,27247.798
 ElectricEquipment Internal Gains, CORE_MID_PLUGMISC_EQUIP,BLDG_EQUIP_SCH,CORE_MID,2532.32,136.3,27247.798,10.760,199.921,0.000,0.500,0.000,0.500,General,0.000,27247.798
 ElectricEquipment Internal Gains, CORE_TOP_PLUGMISC_EQUIP,BLDG_EQUIP_SCH,CORE_TOP,2532.32,136.3,27247.798,10.760,199.921,0.000,0.500,0.000,0.500,General,0.000,27247.798
 ElectricEquipment Internal Gains, PERIMETER_BOT_ZN_1_PLUGMISC_EQUIP,BLDG_EQUIP_SCH,PERIMETER_BOT_ZN_1,313.42,16.9,3372.396,10.760,199.921,0.000,0.500,0.000,0.500,General,0.000,3372.396
 ElectricEquipment Internal Gains, PERIMETER_BOT_ZN_2_PLUGMISC_EQUIP,BLDG_EQUIP_SCH,PERIMETER_BOT_ZN_2,201.98,10.9,2173.253,10.760,199.921,0.000,0.500,0.000,0.500,General,0.000,2173.253
 ElectricEquipment Internal Gains, PERIMETER_BOT_ZN_3_PLUGMISC_EQUIP,BLDG_EQUIP_SCH,PERIMETER_BOT_ZN_3,313.41,16.9,3372.322,10.760,199.921,0.000,0.500,0.000,0.500,General,0.000,3372.322
 ElectricEquipment Internal Gains, PERIMETER_BOT_ZN_4_PLUGMISC_EQUIP,BLDG_EQUIP_SCH,PERIMETER_BOT_ZN_4,201.98,10.9,2173.253,10.760,199.921,0.000,0.500,0.000,0.500,General,0.000,2173.253
 ElectricEquipment Internal Gains, PERIMETER_MID_ZN_1_PLUGMISC_EQUIP,BLDG_EQUIP_SCH,PERIMETER_MID_ZN_1,313.42,16.9,3372.396,10.760,199.921,0.000,0.500,0.000,0.500,General,0.000,3372.396
 ElectricEquipment Internal Gains, PERIMETER_MID_ZN_2_PLUGMISC_EQUIP,BLDG_EQUIP_SCH,PERIMETER_MID_ZN_2,201.98,10.9,2173.253,10.760,199.921,0.000,0.500,0.000,0.500,General,0.000,2173.253
 ElectricEquipment Internal Gains, PERIMETER_MID_ZN_3_PLUGMISC_EQUIP,BLDG_EQUIP_SCH,PERIMETER_MID_ZN_3,313.41,16.9,3372.322,10.760,199.921,0.000,0.500,0.000,0.500,General,0.000,3372.322
 ElectricEquipment Internal Gains, PERIMETER_MID_ZN_4_PLUGMISC_EQUIP,BLDG_EQUIP_SCH,PERIMETER_MID_ZN_4,201.98,10.9,2173.253,10.760,199.921,0.000,0.500,0.000,0.500,General,0.000,2173.253
 ElectricEquipment Internal Gains, PERIMETER_TOP_ZN_1_PLUGMISC_EQUIP,BLDG_EQUIP_SCH,PERIMETER_TOP_ZN_1,313.42,16.9,3372.396,10.760,199.921,0.000,0.500,0.000,0.500,General,0.000,3372.396
 ElectricEquipment Internal Gains, PERIMETER_TOP_ZN_2_PLUGMISC_EQUIP,BLDG_EQUIP_SCH,PERIMETER_TOP_ZN_2,201.98,10.9,2173.253,10.760,199.921,0.000,0.500,0.000,0.500,General,0.000,2173.253
 ElectricEquipment Internal Gains, PERIMETER_TOP_ZN_3_PLUGMISC_EQUIP,BLDG_EQUIP_SCH,PERIMETER_TOP_ZN_3,313.41,16.9,3372.322,10.760,199.921,0.000,0.500,0.000,0.500,General,0.000,3372.322
 ElectricEquipment Internal Gains, PERIMETER_TOP_ZN_4_PLUGMISC_EQUIP,BLDG_EQUIP_SCH,PERIMETER_TOP_ZN_4,201.98,10.9,2173.253,10.760,199.921,0.000,0.500,0.000,0.500,General,0.000,2173.253
! <Shadowing/Sun Position Calculations> [Annual Simulations], Calculation Method,Value {days}, Allowable Number Figures in Shadow Overlap {}, Polygon Clipping Algorithm, Sky Diffuse Modeling Algorithm
Shadowing/Sun Position Calculations,AverageOverDaysInFrequency,7,15000,SutherlandHodgman,SimpleSkyDiffuseModeling
! <Water Heater Information>,Type,Name,Volume {m3},Maximum Capacity {W},Standard Rated Recovery Efficiency, Standard Rated Energy Factor
! <Infiltration Airflow Stats - Nominal>,Name,Schedule Name,Zone Name, Zone Floor Area {m2}, # Zone Occupants,Design Volume Flow Rate {m3/s},Volume Flow Rate/Floor Area {m3/s/m2},Volume Flow Rate/Exterior Surface Area {m3/s/m2},ACH - Air Changes per Hour,Equation A - Constant Term Coefficient {},Equation B - Temperature Term Coefficient {1/C},Equation C - Velocity Term Coefficient {s/m}, Equation D - Velocity Squared Term Coefficient {s2/m2}
 ZoneInfiltration Airflow Stats, GROUNDFLOOR_PLENUM_INFILTRATION,INFIL_QUARTER_ON_SCH,GROUNDFLOOR_PLENUM,3563.11,0.0,8.973E-002,2.518E-005,3.020E-004,7.436E-002,1.000,0.000,0.000,0.000
 ZoneInfiltration Airflow Stats, MIDFLOOR_PLENUM_INFILTRATION,INFIL_QUARTER_ON_SCH,MIDFLOOR_PLENUM,3563.11,0.0,8.973E-002,2.518E-005,3.020E-004,7.436E-002,1.000,0.000,0.000,0.000
 ZoneInfiltration Airflow Stats, PERIMETER_BOT_ZN_1_INFILTRATION,INFIL_QUARTER_ON_SCH,PERIMETER_BOT_ZN_1,313.42,16.9,6.058E-002,1.933E-004,3.020E-004,0.254,1.000,0.000,0.000,0.000
 ZoneInfiltration Airflow Stats, PERIMETER_BOT_ZN_2_INFILTRATION,INFIL_QUARTER_ON_SCH,PERIMETER_BOT_ZN_2,201.98,10.9,4.039E-002,2.000E-004,3.020E-004,0.262,1.000,0.000,0.000,0.000
 ZoneInfiltration Airflow Stats, PERIMETER_BOT_ZN_3_INFILTRATION,INFIL_QUARTER_ON_SCH,PERIMETER_BOT_ZN_3,313.41,16.9,6.058E-002,1.933E-004,3.020E-004,0.254,1.000,0.000,0.000,0.000
 ZoneInfiltration Airflow Stats, PERIMETER_BOT_ZN_4_INFILTRATION,INFIL_QUARTER_ON_SCH,PERIMETER_BOT_ZN_4,201.98,10.9,4.039E-002,2.000E-004,3.020E-004,0.262,1.000,0.000,0.000,0.000
 ZoneInfiltration Airflow Stats, PERIMETER_MID_ZN_1_INFILTRATION,INFIL_QUARTER_ON_SCH,PERIMETER_MID_ZN_1,313.42,16.9,6.058E-002,1.933E-004,3.020E-004,0.254,1.000,0.000,0.000,0.000
 ZoneInfiltration Airflow Stats, PERIMETER_MID_ZN_2_INFILTRATION,INFIL_QUARTER_ON_SCH,PERIMETER_MID_ZN_2,201.98,10.9,4.039E-002,2.000E-004,3.020E-004,0.262,1.000,0.000,0.000,0.000
 ZoneInfiltration Airflow Stats, PERIMETER_MID_ZN_3_INFILTRATION,INFIL_QUARTER_ON_SCH,PERIMETER_MID_ZN_3,313.41,16.9,6.058E-002,1.933E-004,3.020E-004,0.254,1.000,0.000,0.000,0.000
 ZoneInfiltration Airflow Stats, PERIMETER_MID_ZN_4_INFILTRATION,INFIL_QUARTER_ON_SCH,PERIMETER_MID_ZN_4,201.98,10.9,4.039E-002,2.000E-004,3.020E-004,0.262,1.000,0.000,0.000,0.000
 ZoneInfiltration Airflow Stats, PERIMETER_TOP_ZN_1_INFILTRATION,INFIL_QUARTER_ON_SCH,PERIMETER_TOP_ZN_1,313.42,16.9,6.058E-002,1.933E-004,3.020E-004,0.254,1.000,0.000,0.000,0.000
 ZoneInfiltration Airflow Stats, PERIMETER_TOP_ZN_2_INFILTRATION,INFIL_QUARTER_ON_SCH,PERIMETER_TOP_ZN_2,201.98,10.9,4.039E-002,2.000E-004,3.020E-004,0.262,1.000,0.000,0.000,0.000
 ZoneInfiltration Airflow Stats, PERIMETER_TOP_ZN_3_INFILTRATION,INFIL_QUARTER_ON_SCH,PERIMETER_TOP_ZN_3,313.41,16.9,6.058E-002,1.933E-004,3.020E-004,0.254,1.000,0.000,0.000,0.000
 ZoneInfiltration Airflow Stats, PERIMETER_TOP_ZN_4_INFILTRATION,INFIL_QUARTER_ON_SCH,PERIMETER_TOP_ZN_4,201.98,10.9,4.039E-002,2.000E-004,3.020E-004,0.262,1.000,0.000,0.000,0.000
 ZoneInfiltration Airflow Stats, TOPFLOOR_PLENUM_INFILTRATION,INFIL_QUARTER_ON_SCH,TOPFLOOR_PLENUM,3563.11,0.0,1.166,3.272E-004,3.020E-004,0.966,1.000,0.000,0.000,0.000
! <AirFlow Model>, Simple
 AirFlow Model, Simple
! <RoomAir Model>, Zone Name, Mixing/Mundt/UCSDDV/UCSDCV/UCSDUFI/UCSDUFE/User Defined
RoomAir Model,BASEMENT,Mixing/Well-Stirred
RoomAir Model,CORE_BOTTOM,Mixing/Well-Stirred
RoomAir Model,CORE_MID,Mixing/Well-Stirred
RoomAir Model,CORE_TOP,Mixing/Well-Stirred
RoomAir Model,GROUNDFLOOR_PLENUM,Mixing/Well-Stirred
RoomAir Model,MIDFLOOR_PLENUM,Mixing/Well-Stirred
RoomAir Model,PERIMETER_BOT_ZN_1,Mixing/Well-Stirred
RoomAir Model,PERIMETER_BOT_ZN_2,Mixing/Well-Stirred
RoomAir Model,PERIMETER_BOT_ZN_3,Mixing/Well-Stirred
RoomAir Model,PERIMETER_BOT_ZN_4,Mixing/Well-Stirred
RoomAir Model,PERIMETER_MID_ZN_1,Mixing/Well-Stirred
RoomAir Model,PERIMETER_MID_ZN_2,Mixing/Well-Stirred
RoomAir Model,PERIMETER_MID_ZN_3,Mixing/Well-Stirred
RoomAir Model,PERIMETER_MID_ZN_4,Mixing/Well-Stirred
RoomAir Model,PERIMETER_TOP_ZN_1,Mixing/Well-Stirred
RoomAir Model,PERIMETER_TOP_ZN_2,Mixing/Well-Stirred
RoomAir Model,PERIMETER_TOP_ZN_3,Mixing/Well-Stirred
RoomAir Model,PERIMETER_TOP_ZN_4,Mixing/Well-Stirred
RoomAir Model,TOPFLOOR_PLENUM,Mixing/Well-Stirred
! <AirflowNetwork Model:Control>, No Multizone or Distribution/Multizone with Distribution/Multizone without Distribution/Multizone with Distribution only during Fan Operation
AirflowNetwork Model:Control,NoMultizoneOrDistribution
! <Zone Volume Capacitance Multiplier>, Sensible Heat Capacity Multiplier, Moisture Capacity Multiplier, Carbon Dioxide Capacity Multiplier, Generic Contaminant Capacity Multiplier
Zone Volume Capacitance Multiplier,   1.000 ,   1.000,   1.000,   1.000
! <Load Timesteps in Zone Design Calculation Averaging Window>, Value
 Load Timesteps in Zone Design Calculation Averaging Window,    6
! <Heating Sizing Factor Information>, Sizing Factor ID, Value
 Heating Sizing Factor Information, Global,   1.3300    
 Heating Sizing Factor Information, Zone BASEMENT,   1.3300    
 Heating Sizing Factor Information, Zone CORE_BOTTOM,   1.3300    
 Heating Sizing Factor Information, Zone CORE_MID,   1.3300    
 Heating Sizing Factor Information, Zone CORE_TOP,   1.3300    
 Heating Sizing Factor Information, Zone PERIMETER_BOT_ZN_1,   1.3300    
 Heating Sizing Factor Information, Zone PERIMETER_BOT_ZN_2,   1.3300    
 Heating Sizing Factor Information, Zone PERIMETER_BOT_ZN_3,   1.3300    
 Heating Sizing Factor Information, Zone PERIMETER_BOT_ZN_4,   1.3300    
 Heating Sizing Factor Information, Zone PERIMETER_MID_ZN_1,   1.3300    
 Heating Sizing Factor Information, Zone PERIMETER_MID_ZN_2,   1.3300    
 Heating Sizing Factor Information, Zone PERIMETER_MID_ZN_3,   1.3300    
 Heating Sizing Factor Information, Zone PERIMETER_MID_ZN_4,   1.3300    
 Heating Sizing Factor Information, Zone PERIMETER_TOP_ZN_1,   1.3300    
 Heating Sizing Factor Information, Zone PERIMETER_TOP_ZN_2,   1.3300    
 Heating Sizing Factor Information, Zone PERIMETER_TOP_ZN_3,   1.3300    
 Heating Sizing Factor Information, Zone PERIMETER_TOP_ZN_4,   1.3300    
! <Cooling Sizing Factor Information>, Sizing Factor ID, Value
 Cooling Sizing Factor Information, Global,   1.3300    
 Cooling Sizing Factor Information, Zone BASEMENT,   1.3300    
 Cooling Sizing Factor Information, Zone CORE_BOTTOM,   1.3300    
 Cooling Sizing Factor Information, Zone CORE_MID,   1.3300    
 Cooling Sizing Factor Information, Zone CORE_TOP,   1.3300    
 Cooling Sizing Factor Information, Zone PERIMETER_BOT_ZN_1,   1.3300    
 Cooling Sizing Factor Information, Zone PERIMETER_BOT_ZN_2,   1.3300    
 Cooling Sizing Factor Information, Zone PERIMETER_BOT_ZN_3,   1.3300    
 Cooling Sizing Factor Information, Zone PERIMETER_BOT_ZN_4,   1.3300    
 Cooling Sizing Factor Information, Zone PERIMETER_MID_ZN_1,   1.3300    
 Cooling Sizing Factor Information, Zone PERIMETER_MID_ZN_2,   1.3300    
 Cooling Sizing Factor Information, Zone PERIMETER_MID_ZN_3,   1.3300    
 Cooling Sizing Factor Information, Zone PERIMETER_MID_ZN_4,   1.3300    
 Cooling Sizing Factor Information, Zone PERIMETER_TOP_ZN_1,   1.3300    
 Cooling Sizing Factor Information, Zone PERIMETER_TOP_ZN_2,   1.3300    
 Cooling Sizing Factor Information, Zone PERIMETER_TOP_ZN_3,   1.3300    
 Cooling Sizing Factor Information, Zone PERIMETER_TOP_ZN_4,   1.3300    
! <Zone Sizing Information>, Zone Name, Load Type, Calc Des Load {W}, User Des Load {W}, Calc Des Air Flow Rate {m3/s}, User Des Air Flow Rate {m3/s}, Design Day Name, Date/Time of Peak, Temperature at Peak {C}, Humidity Ratio at Peak {kgWater/kgDryAir}, Floor Area {m2}, # Occupants, Calc Outdoor Air Flow Rate {m3/s}
 Zone Sizing Information, BASEMENT, Cooling, 45029.13976, 59888.75588, 3.33867, 4.44043, CHICAGO ANN CLG .4% CONDNS WB=>MDB, 7/21 19:00:00, 27.02700, 1.87829E-002, 3563.10602, 95.88552, 1.19857
 Zone Sizing Information, BASEMENT, Heating, 0.00000, 0.00000, 0.00000, 1.19857, CHICAGO ANN HTG 99.6% CONDNS DB, , -20.60000, 6.12575E-004, 3563.10602, 95.88552, 1.19857
 Zone Sizing Information, CORE_BOTTOM, Cooling, 57050.97125, 75877.79177, 4.23027, 5.62626, CHICAGO ANN CLG .4% CONDNS WB=>MDB, 7/21 18:25:00, 27.96325, 1.87829E-002, 2532.32320, 136.29296, 1.70366
 Zone Sizing Information, CORE_BOTTOM, Heating, 0.00000, 0.00000, 0.00000, 1.70366, CHICAGO ANN HTG 99.6% CONDNS DB, , -20.60000, 6.12575E-004, 2532.32320, 136.29296, 1.70366
 Zone Sizing Information, CORE_MID, Cooling, 592624.96314, 788191.20098, 43.94249, 58.44351, CHICAGO ANN CLG .4% CONDNS WB=>MDB, 7/21 18:25:00, 27.96325, 1.87829E-002, 2532.32320, 136.29296, 17.03662
 Zone Sizing Information, CORE_MID, Heating, 0.00000, 0.00000, 0.00000, 17.03662, CHICAGO ANN HTG 99.6% CONDNS DB, , -20.60000, 6.12575E-004, 2532.32320, 136.29296, 17.03662
 Zone Sizing Information, CORE_TOP, Cooling, 69212.33271, 92052.40251, 5.13201, 6.82557, CHICAGO ANN CLG .4% CONDNS WB=>MDB, 7/21 18:35:00, 27.69575, 1.87829E-002, 2532.32320, 136.29296, 1.70366
 Zone Sizing Information, CORE_TOP, Heating, 48010.59418, 63854.09025, 1.37593, 1.82999, CHICAGO ANN HTG 99.6% CONDNS DB, 1/21 06:05:00, -20.60000, 6.12575E-004, 2532.32320, 136.29296, 1.70366
 Zone Sizing Information, PERIMETER_BOT_ZN_1, Cooling, 12430.03767, 16531.95011, 0.92172, 1.22588, CHICAGO ANN CLG .4% CONDNS WB=>MDB, 7/21 12:45:00, 30.45100, 1.87829E-002, 313.41969, 16.86866, 0.21086
 Zone Sizing Information, PERIMETER_BOT_ZN_1, Heating, 12466.65640, 16580.65301, 0.35721, 0.47509, CHICAGO ANN HTG 99.6% CONDNS DB, 1/21 24:00:00, -20.60000, 6.12575E-004, 313.41969, 16.86866, 0.21086
 Zone Sizing Information, PERIMETER_BOT_ZN_2, Cooling, 16147.64062, 21476.36202, 1.19736, 1.59249, CHICAGO ANN CLG .4% CONDNS WB=>MDB, 7/21 07:55:00, 23.13042, 1.83091E-002, 201.97515, 10.87057, 0.13588
 Zone Sizing Information, PERIMETER_BOT_ZN_2, Heating, 8370.25934, 11132.44492, 0.23984, 0.31898, CHICAGO ANN HTG 99.6% CONDNS DB, 1/21 24:00:00, -20.60000, 6.12575E-004, 201.97515, 10.87057, 0.13588
 Zone Sizing Information, PERIMETER_BOT_ZN_3, Cooling, 10691.96993, 14220.32001, 0.79284, 1.05447, CHICAGO ANN CLG .4% CONDNS WB=>MDB, 7/21 14:45:00, 31.20000, 1.87829E-002, 313.41284, 16.86829, 0.21085
 Zone Sizing Information, PERIMETER_BOT_ZN_3, Heating, 12214.39268, 16245.14226, 0.34998, 0.46548, CHICAGO ANN HTG 99.6% CONDNS DB, 1/21 24:00:00, -20.60000, 6.12575E-004, 313.41284, 16.86829, 0.21085
 Zone Sizing Information, PERIMETER_BOT_ZN_4, Cooling, 18026.13839, 23974.76406, 1.33666, 1.77776, CHICAGO ANN CLG .4% CONDNS WB=>MDB, 7/21 16:45:00, 29.91600, 1.87829E-002, 201.97515, 10.87057, 0.13588
 Zone Sizing Information, PERIMETER_BOT_ZN_4, Heating, 8352.05328, 11108.23087, 0.23931, 0.31829, CHICAGO ANN HTG 99.6% CONDNS DB, 1/21 24:00:00, -20.60000, 6.12575E-004, 201.97515, 10.87057, 0.13588
 Zone Sizing Information, PERIMETER_MID_ZN_1, Cooling, 135315.12366, 179969.11446, 10.03390, 13.34509, CHICAGO ANN CLG .4% CONDNS WB=>MDB, 7/21 13:00:00, 30.66500, 1.87829E-002, 313.41969, 16.86866, 2.10858
 Zone Sizing Information, PERIMETER_MID_ZN_1, Heating, 142777.58409, 189894.18684, 4.09106, 5.44111, CHICAGO ANN HTG 99.6% CONDNS DB, 1/21 24:00:00, -20.60000, 6.12575E-004, 313.41969, 16.86866, 2.10858
 Zone Sizing Information, PERIMETER_MID_ZN_2, Cooling, 168617.23081, 224260.91698, 12.50318, 16.62923, CHICAGO ANN CLG .4% CONDNS WB=>MDB, 7/21 08:35:00, 24.46792, 1.87829E-002, 201.97515, 10.87057, 1.35882
 Zone Sizing Information, PERIMETER_MID_ZN_2, Heating, 94136.70933, 125201.82341, 2.69732, 3.58744, CHICAGO ANN HTG 99.6% CONDNS DB, 1/21 24:00:00, -20.60000, 6.12575E-004, 201.97515, 10.87057, 1.35882
 Zone Sizing Information, PERIMETER_MID_ZN_3, Cooling, 112332.03898, 149401.61185, 8.32968, 11.07848, CHICAGO ANN CLG .4% CONDNS WB=>MDB, 7/21 14:50:00, 31.20000, 1.87829E-002, 313.41284, 16.86829, 2.10854
 Zone Sizing Information, PERIMETER_MID_ZN_3, Heating, 141339.24796, 187981.19979, 4.04985, 5.38630, CHICAGO ANN HTG 99.6% CONDNS DB, 1/21 24:00:00, -20.60000, 6.12575E-004, 313.41284, 16.86829, 2.10854
 Zone Sizing Information, PERIMETER_MID_ZN_4, Cooling, 192923.46039, 256588.20231, 14.30549, 19.02630, CHICAGO ANN CLG .4% CONDNS WB=>MDB, 7/21 16:55:00, 29.77333, 1.87829E-002, 201.97515, 10.87057, 1.35882
 Zone Sizing Information, PERIMETER_MID_ZN_4, Heating, 95986.87844, 127662.54833, 2.75033, 3.65795, CHICAGO ANN HTG 99.6% CONDNS DB, 1/21 24:00:00, -20.60000, 6.12575E-004, 201.97515, 10.87057, 1.35882
 Zone Sizing Information, PERIMETER_TOP_ZN_1, Cooling, 13788.85641, 18339.17903, 1.02247, 1.35989, CHICAGO ANN CLG .4% CONDNS WB=>MDB, 7/21 13:20:00, 30.84333, 1.87829E-002, 313.41969, 16.86866, 0.21086
 Zone Sizing Information, PERIMETER_TOP_ZN_1, Heating, 22770.00966, 30284.11285, 0.65244, 0.86775, CHICAGO ANN HTG 99.6% CONDNS DB, 1/21 06:00:00, -20.60000, 6.12575E-004, 313.41969, 16.86866, 0.21086
 Zone Sizing Information, PERIMETER_TOP_ZN_2, Cooling, 16345.74146, 21739.83614, 1.21206, 1.61204, CHICAGO ANN CLG .4% CONDNS WB=>MDB, 7/21 08:35:00, 24.46792, 1.87829E-002, 201.97515, 10.87057, 0.13588
 Zone Sizing Information, PERIMETER_TOP_ZN_2, Heating, 14824.56885, 19716.67657, 0.42477, 0.56495, CHICAGO ANN HTG 99.6% CONDNS DB, 1/21 06:00:00, -20.60000, 6.12575E-004, 201.97515, 10.87057, 0.13588
 Zone Sizing Information, PERIMETER_TOP_ZN_3, Cooling, 12036.29629, 16008.27406, 0.89252, 1.18705, CHICAGO ANN CLG .4% CONDNS WB=>MDB, 7/21 17:05:00, 29.61283, 1.87829E-002, 313.41284, 16.86829, 0.21085
 Zone Sizing Information, PERIMETER_TOP_ZN_3, Heating, 22682.67913, 30167.96325, 0.64994, 0.86442, CHICAGO ANN HTG 99.6% CONDNS DB, 1/21 06:00:00, -20.60000, 6.12575E-004, 313.41284, 16.86829, 0.21085
 Zone Sizing Information, PERIMETER_TOP_ZN_4, Cooling, 19934.55028, 26512.95188, 1.47817, 1.96596, CHICAGO ANN CLG .4% CONDNS WB=>MDB, 7/21 16:55:00, 29.77333, 1.87829E-002, 201.97515, 10.87057, 0.13588
 Zone Sizing Information, PERIMETER_TOP_ZN_4, Heating, 15079.42768, 20055.63881, 0.43208, 0.57466, CHICAGO ANN HTG 99.6% CONDNS DB, 1/21 06:00:00, -20.60000, 6.12575E-004, 201.97515, 10.87057, 0.13588
! <System Sizing Information>, System Name, Field Description, Value
 System Sizing Information, VAV_1, Calculated Cooling Design Air Flow Rate [m3/s], 11.27686
 System Sizing Information, VAV_1, User Cooling Design Air Flow Rate [m3/s], 11.27686
 System Sizing Information, VAV_1, Calculated Heating Design Air Flow Rate [m3/s], 3.28150
 System Sizing Information, VAV_1, User Heating Design Air Flow Rate [m3/s], 3.28150
 System Sizing Information, VAV_2, Calculated Cooling Design Air Flow Rate [m3/s], 118.52261
 System Sizing Information, VAV_2, User Cooling Design Air Flow Rate [m3/s], 118.52261
 System Sizing Information, VAV_2, Calculated Heating Design Air Flow Rate [m3/s], 35.10942
 System Sizing Information, VAV_2, User Heating Design Air Flow Rate [m3/s], 35.10942
 System Sizing Information, VAV_3, Calculated Cooling Design Air Flow Rate [m3/s], 12.95051
 System Sizing Information, VAV_3, User Cooling Design Air Flow Rate [m3/s], 12.95051
 System Sizing Information, VAV_3, Calculated Heating Design Air Flow Rate [m3/s], 4.70177
 System Sizing Information, VAV_3, User Heating Design Air Flow Rate [m3/s], 4.70177
 System Sizing Information, VAV_5, Calculated Cooling Design Air Flow Rate [m3/s], 4.44043
 System Sizing Information, VAV_5, User Cooling Design Air Flow Rate [m3/s], 4.44043
 System Sizing Information, VAV_5, Calculated Heating Design Air Flow Rate [m3/s], 1.19857
 System Sizing Information, VAV_5, User Heating Design Air Flow Rate [m3/s], 1.19857
! <Component Sizing Information>, Component Type, Component Name, Input Field Description, Value
 Component Sizing Information, AirTerminal:SingleDuct:VAV:Reheat, BASEMENT VAV BOX COMPONENT, Design Size Maximum Air Flow Rate [m3/s], 4.44043
 Component Sizing Information, AirTerminal:SingleDuct:VAV:Reheat, BASEMENT VAV BOX COMPONENT, Design Size Maximum Flow per Zone Floor Area during Reheat [m3/s-m2], 1.24623E-003
 Component Sizing Information, AirTerminal:SingleDuct:VAV:Reheat, BASEMENT VAV BOX COMPONENT, Design Size Maximum Flow Fraction during Reheat [], 1.00000
 Component Sizing Information, AirTerminal:SingleDuct:VAV:Reheat, BASEMENT VAV BOX COMPONENT, Design Size Maximum Reheat Water Flow Rate [m3/s], 0.00000
 Component Sizing Information, AirTerminal:SingleDuct:VAV:Reheat, BASEMENT VAV BOX COMPONENT, Design Size Reheat Coil Sizing Air Volume Flow Rate [m3/s], 1.33213
 Component Sizing Information, Coil:Heating:Water, BASEMENT VAV BOX REHEAT COIL, Design Size Design Coil Load [W], 0.00000
 Component Sizing Information, Coil:Heating:Water, BASEMENT VAV BOX REHEAT COIL, Design Size Maximum Water Flow Rate [m3/s], 0.00000
 Component Sizing Information, Coil:Heating:Water, BASEMENT VAV BOX REHEAT COIL, Design Size U-Factor Times Area Value [W/K], 1.00000
! <Water Heating Coil Capacity Information>,Component Type,Name,Nominal Total Capacity {W}
Water Heating Coil Capacity Information,Coil:Heating:Water,BASEMENT VAV BOX REHEAT COIL,0.00
 Component Sizing Information, AirTerminal:SingleDuct:VAV:Reheat, CORE_BOTTOM VAV BOX COMPONENT, Design Size Maximum Air Flow Rate [m3/s], 5.62626
 Component Sizing Information, AirTerminal:SingleDuct:VAV:Reheat, CORE_BOTTOM VAV BOX COMPONENT, Design Size Maximum Flow per Zone Floor Area during Reheat [m3/s-m2], 2.03200E-003
 Component Sizing Information, AirTerminal:SingleDuct:VAV:Reheat, CORE_BOTTOM VAV BOX COMPONENT, Design Size Maximum Flow Fraction during Reheat [], 0.91458
 Component Sizing Information, AirTerminal:SingleDuct:VAV:Reheat, CORE_BOTTOM VAV BOX COMPONENT, Design Size Maximum Reheat Water Flow Rate [m3/s], 0.00000
 Component Sizing Information, AirTerminal:SingleDuct:VAV:Reheat, CORE_BOTTOM VAV BOX COMPONENT, Design Size Reheat Coil Sizing Air Volume Flow Rate [m3/s], 1.68788
 Component Sizing Information, Coil:Heating:Water, CORE_BOTTOM VAV BOX REHEAT COIL, Design Size Design Coil Load [W], 0.00000
 Component Sizing Information, Coil:Heating:Water, CORE_BOTTOM VAV BOX REHEAT COIL, Design Size Maximum Water Flow Rate [m3/s], 0.00000
 Component Sizing Information, Coil:Heating:Water, CORE_BOTTOM VAV BOX REHEAT COIL, Design Size U-Factor Times Area Value [W/K], 1.00000
Water Heating Coil Capacity Information,Coil:Heating:Water,CORE_BOTTOM VAV BOX REHEAT COIL,0.00
 Component Sizing Information, AirTerminal:SingleDuct:VAV:Reheat, CORE_MID VAV BOX COMPONENT, Design Size Maximum Air Flow Rate [m3/s], 58.44351
 Component Sizing Information, AirTerminal:SingleDuct:VAV:Reheat, CORE_MID VAV BOX COMPONENT, Design Size Maximum Flow per Zone Floor Area during Reheat [m3/s-m2], 2.03200E-003
 Component Sizing Information, AirTerminal:SingleDuct:VAV:Reheat, CORE_MID VAV BOX COMPONENT, Design Size Maximum Flow Fraction during Reheat [], 0.88045
 Component Sizing Information, AirTerminal:SingleDuct:VAV:Reheat, CORE_MID VAV BOX COMPONENT, Design Size Maximum Reheat Water Flow Rate [m3/s], 0.00000
 Component Sizing Information, AirTerminal:SingleDuct:VAV:Reheat, CORE_MID VAV BOX COMPONENT, Design Size Reheat Coil Sizing Air Volume Flow Rate [m3/s], 17.53305
 Component Sizing Information, Coil:Heating:Water, CORE_MID VAV BOX REHEAT COIL, Design Size Design Coil Load [W], 0.00000
 Component Sizing Information, Coil:Heating:Water, CORE_MID VAV BOX REHEAT COIL, Design Size Maximum Water Flow Rate [m3/s], 0.00000
 Component Sizing Information, Coil:Heating:Water, CORE_MID VAV BOX REHEAT COIL, Design Size U-Factor Times Area Value [W/K], 1.00000
Water Heating Coil Capacity Information,Coil:Heating:Water,CORE_MID VAV BOX REHEAT COIL,0.00
 Component Sizing Information, AirTerminal:SingleDuct:VAV:Reheat, CORE_TOP VAV BOX COMPONENT, Design Size Maximum Air Flow Rate [m3/s], 6.82557
 Component Sizing Information, AirTerminal:SingleDuct:VAV:Reheat, CORE_TOP VAV BOX COMPONENT, Design Size Maximum Flow per Zone Floor Area during Reheat [m3/s-m2], 2.03200E-003
 Component Sizing Information, AirTerminal:SingleDuct:VAV:Reheat, CORE_TOP VAV BOX COMPONENT, Design Size Maximum Flow Fraction during Reheat [], 0.75388
 Component Sizing Information, AirTerminal:SingleDuct:VAV:Reheat, CORE_TOP VAV BOX COMPONENT, Design Size Maximum Reheat Water Flow Rate [m3/s], 1.63003E-003
 Component Sizing Information, AirTerminal:SingleDuct:VAV:Reheat, CORE_TOP VAV BOX COMPONENT, Design Size Reheat Coil Sizing Air Volume Flow Rate [m3/s], 2.04767
 Component Sizing Information, Coil:Heating:Water, CORE_TOP VAV BOX REHEAT COIL, Design Size Design Coil Load [W], 75712.72162
 Component Sizing Information, Coil:Heating:Water, CORE_TOP VAV BOX REHEAT COIL, Design Size Maximum Water Flow Rate [m3/s], 1.63003E-003
 Component Sizing Information, Coil:Heating:Water, CORE_TOP VAV BOX REHEAT COIL, Design Size U-Factor Times Area Value [W/K], 1789.39922
Water Heating Coil Capacity Information,Coil:Heating:Water,CORE_TOP VAV BOX REHEAT COIL,75758.81
 Component Sizing Information, AirTerminal:SingleDuct:VAV:Reheat, PERIMETER_BOT_ZN_1 VAV BOX COMPONENT, Design Size Maximum Air Flow Rate [m3/s], 1.22588
 Component Sizing Information, AirTerminal:SingleDuct:VAV:Reheat, PERIMETER_BOT_ZN_1 VAV BOX COMPONENT, Design Size Maximum Flow per Zone Floor Area during Reheat [m3/s-m2], 2.03200E-003
 Component Sizing Information, AirTerminal:SingleDuct:VAV:Reheat, PERIMETER_BOT_ZN_1 VAV BOX COMPONENT, Design Size Maximum Flow Fraction during Reheat [], 0.51952
 Component Sizing Information, AirTerminal:SingleDuct:VAV:Reheat, PERIMETER_BOT_ZN_1 VAV BOX COMPONENT, Design Size Maximum Reheat Water Flow Rate [m3/s], 4.16658E-004
 Component Sizing Information, AirTerminal:SingleDuct:VAV:Reheat, PERIMETER_BOT_ZN_1 VAV BOX COMPONENT, Design Size Reheat Coil Sizing Air Volume Flow Rate [m3/s], 0.47509
 Component Sizing Information, Coil:Heating:Water, PERIMETER_BOT_ZN_1 VAV BOX REHEAT COIL, Design Size Design Coil Load [W], 19353.23383
 Component Sizing Information, Coil:Heating:Water, PERIMETER_BOT_ZN_1 VAV BOX REHEAT COIL, Design Size Maximum Water Flow Rate [m3/s], 4.16658E-004
 Component Sizing Information, Coil:Heating:Water, PERIMETER_BOT_ZN_1 VAV BOX REHEAT COIL, Design Size U-Factor Times Area Value [W/K], 477.74435
Water Heating Coil Capacity Information,Coil:Heating:Water,PERIMETER_BOT_ZN_1 VAV BOX REHEAT COIL,17741.68
 Component Sizing Information, AirTerminal:SingleDuct:VAV:Reheat, PERIMETER_BOT_ZN_2 VAV BOX COMPONENT, Design Size Maximum Air Flow Rate [m3/s], 1.59249
 Component Sizing Information, AirTerminal:SingleDuct:VAV:Reheat, PERIMETER_BOT_ZN_2 VAV BOX COMPONENT, Design Size Maximum Flow per Zone Floor Area during Reheat [m3/s-m2], 2.36538E-003
 Component Sizing Information, AirTerminal:SingleDuct:VAV:Reheat, PERIMETER_BOT_ZN_2 VAV BOX COMPONENT, Design Size Maximum Flow Fraction during Reheat [], 0.30000
 Component Sizing Information, AirTerminal:SingleDuct:VAV:Reheat, PERIMETER_BOT_ZN_2 VAV BOX COMPONENT, Design Size Maximum Reheat Water Flow Rate [m3/s], 2.97669E-004
 Component Sizing Information, AirTerminal:SingleDuct:VAV:Reheat, PERIMETER_BOT_ZN_2 VAV BOX COMPONENT, Design Size Reheat Coil Sizing Air Volume Flow Rate [m3/s], 0.47775
 Component Sizing Information, Coil:Heating:Water, PERIMETER_BOT_ZN_2 VAV BOX REHEAT COIL, Design Size Design Coil Load [W], 13826.36200
 Component Sizing Information, Coil:Heating:Water, PERIMETER_BOT_ZN_2 VAV BOX REHEAT COIL, Design Size Maximum Water Flow Rate [m3/s], 2.97669E-004
 Component Sizing Information, Coil:Heating:Water, PERIMETER_BOT_ZN_2 VAV BOX REHEAT COIL, Design Size U-Factor Times Area Value [W/K], 301.29802
Water Heating Coil Capacity Information,Coil:Heating:Water,PERIMETER_BOT_ZN_2 VAV BOX REHEAT COIL,13838.39
 Component Sizing Information, AirTerminal:SingleDuct:VAV:Reheat, PERIMETER_BOT_ZN_3 VAV BOX COMPONENT, Design Size Maximum Air Flow Rate [m3/s], 1.05447
 Component Sizing Information, AirTerminal:SingleDuct:VAV:Reheat, PERIMETER_BOT_ZN_3 VAV BOX COMPONENT, Design Size Maximum Flow per Zone Floor Area during Reheat [m3/s-m2], 2.03200E-003
 Component Sizing Information, AirTerminal:SingleDuct:VAV:Reheat, PERIMETER_BOT_ZN_3 VAV BOX COMPONENT, Design Size Maximum Flow Fraction during Reheat [], 0.60396
 Component Sizing Information, AirTerminal:SingleDuct:VAV:Reheat, PERIMETER_BOT_ZN_3 VAV BOX COMPONENT, Design Size Maximum Reheat Water Flow Rate [m3/s], 4.08225E-004
 Component Sizing Information, AirTerminal:SingleDuct:VAV:Reheat, PERIMETER_BOT_ZN_3 VAV BOX COMPONENT, Design Size Reheat Coil Sizing Air Volume Flow Rate [m3/s], 0.46548
 Component Sizing Information, Coil:Heating:Water, PERIMETER_BOT_ZN_3 VAV BOX REHEAT COIL, Design Size Design Coil Load [W], 18961.53042
 Component Sizing Information, Coil:Heating:Water, PERIMETER_BOT_ZN_3 VAV BOX REHEAT COIL, Design Size Maximum Water Flow Rate [m3/s], 4.08225E-004
 Component Sizing Information, Coil:Heating:Water, PERIMETER_BOT_ZN_3 VAV BOX REHEAT COIL, Design Size U-Factor Times Area Value [W/K], 468.07381
Water Heating Coil Capacity Information,Coil:Heating:Water,PERIMETER_BOT_ZN_3 VAV BOX REHEAT COIL,16484.24
 Component Sizing Information, AirTerminal:SingleDuct:VAV:Reheat, PERIMETER_BOT_ZN_4 VAV BOX COMPONENT, Design Size Maximum Air Flow Rate [m3/s], 1.77776
 Component Sizing Information, AirTerminal:SingleDuct:VAV:Reheat, PERIMETER_BOT_ZN_4 VAV BOX COMPONENT, Design Size Maximum Flow per Zone Floor Area during Reheat [m3/s-m2], 2.64056E-003
 Component Sizing Information, AirTerminal:SingleDuct:VAV:Reheat, PERIMETER_BOT_ZN_4 VAV BOX COMPONENT, Design Size Maximum Flow Fraction during Reheat [], 0.30000
 Component Sizing Information, AirTerminal:SingleDuct:VAV:Reheat, PERIMETER_BOT_ZN_4 VAV BOX COMPONENT, Design Size Maximum Reheat Water Flow Rate [m3/s], 3.03413E-004
 Component Sizing Information, AirTerminal:SingleDuct:VAV:Reheat, PERIMETER_BOT_ZN_4 VAV BOX COMPONENT, Design Size Reheat Coil Sizing Air Volume Flow Rate [m3/s], 0.53333
 Component Sizing Information, Coil:Heating:Water, PERIMETER_BOT_ZN_4 VAV BOX REHEAT COIL, Design Size Design Coil Load [W], 14093.13777
 Component Sizing Information, Coil:Heating:Water, PERIMETER_BOT_ZN_4 VAV BOX REHEAT COIL, Design Size Maximum Water Flow Rate [m3/s], 3.03413E-004
 Component Sizing Information, Coil:Heating:Water, PERIMETER_BOT_ZN_4 VAV BOX REHEAT COIL, Design Size U-Factor Times Area Value [W/K], 300.28699
Water Heating Coil Capacity Information,Coil:Heating:Water,PERIMETER_BOT_ZN_4 VAV BOX REHEAT COIL,14106.97
 Component Sizing Information, AirTerminal:SingleDuct:VAV:Reheat, PERIMETER_MID_ZN_1 VAV BOX COMPONENT, Design Size Maximum Air Flow Rate [m3/s], 13.34509
 Component Sizing Information, AirTerminal:SingleDuct:VAV:Reheat, PERIMETER_MID_ZN_1 VAV BOX COMPONENT, Design Size Maximum Flow per Zone Floor Area during Reheat [m3/s-m2], 2.03200E-003
 Component Sizing Information, AirTerminal:SingleDuct:VAV:Reheat, PERIMETER_MID_ZN_1 VAV BOX COMPONENT, Design Size Maximum Flow Fraction during Reheat [], 0.47723
 Component Sizing Information, AirTerminal:SingleDuct:VAV:Reheat, PERIMETER_MID_ZN_1 VAV BOX COMPONENT, Design Size Maximum Reheat Water Flow Rate [m3/s], 4.77203E-003
 Component Sizing Information, AirTerminal:SingleDuct:VAV:Reheat, PERIMETER_MID_ZN_1 VAV BOX COMPONENT, Design Size Reheat Coil Sizing Air Volume Flow Rate [m3/s], 5.44111
 Component Sizing Information, Coil:Heating:Water, PERIMETER_MID_ZN_1 VAV BOX REHEAT COIL, Design Size Design Coil Load [W], 221654.69910
 Component Sizing Information, Coil:Heating:Water, PERIMETER_MID_ZN_1 VAV BOX REHEAT COIL, Design Size Maximum Water Flow Rate [m3/s], 4.77203E-003
 Component Sizing Information, Coil:Heating:Water, PERIMETER_MID_ZN_1 VAV BOX REHEAT COIL, Design Size U-Factor Times Area Value [W/K], 5471.74138
Water Heating Coil Capacity Information,Coil:Heating:Water,PERIMETER_MID_ZN_1 VAV BOX REHEAT COIL,199182.50
 Component Sizing Information, AirTerminal:SingleDuct:VAV:Reheat, PERIMETER_MID_ZN_2 VAV BOX COMPONENT, Design Size Maximum Air Flow Rate [m3/s], 16.62923
 Component Sizing Information, AirTerminal:SingleDuct:VAV:Reheat, PERIMETER_MID_ZN_2 VAV BOX COMPONENT, Design Size Maximum Flow per Zone Floor Area during Reheat [m3/s-m2], 2.46999E-003
 Component Sizing Information, AirTerminal:SingleDuct:VAV:Reheat, PERIMETER_MID_ZN_2 VAV BOX COMPONENT, Design Size Maximum Flow Fraction during Reheat [], 0.30000
 Component Sizing Information, AirTerminal:SingleDuct:VAV:Reheat, PERIMETER_MID_ZN_2 VAV BOX COMPONENT, Design Size Maximum Reheat Water Flow Rate [m3/s], 3.30450E-003
 Component Sizing Information, AirTerminal:SingleDuct:VAV:Reheat, PERIMETER_MID_ZN_2 VAV BOX COMPONENT, Design Size Reheat Coil Sizing Air Volume Flow Rate [m3/s], 4.98877
 Component Sizing Information, Coil:Heating:Water, PERIMETER_MID_ZN_2 VAV BOX REHEAT COIL, Design Size Design Coil Load [W], 153489.97176
 Component Sizing Information, Coil:Heating:Water, PERIMETER_MID_ZN_2 VAV BOX REHEAT COIL, Design Size Maximum Water Flow Rate [m3/s], 3.30450E-003
 Component Sizing Information, Coil:Heating:Water, PERIMETER_MID_ZN_2 VAV BOX REHEAT COIL, Design Size U-Factor Times Area Value [W/K], 3402.87377
Water Heating Coil Capacity Information,Coil:Heating:Water,PERIMETER_MID_ZN_2 VAV BOX REHEAT COIL,153619.15
 Component Sizing Information, AirTerminal:SingleDuct:VAV:Reheat, PERIMETER_MID_ZN_3 VAV BOX COMPONENT, Design Size Maximum Air Flow Rate [m3/s], 11.07848
 Component Sizing Information, AirTerminal:SingleDuct:VAV:Reheat, PERIMETER_MID_ZN_3 VAV BOX COMPONENT, Design Size Maximum Flow per Zone Floor Area during Reheat [m3/s-m2], 2.03200E-003
 Component Sizing Information, AirTerminal:SingleDuct:VAV:Reheat, PERIMETER_MID_ZN_3 VAV BOX COMPONENT, Design Size Maximum Flow Fraction during Reheat [], 0.57486
 Component Sizing Information, AirTerminal:SingleDuct:VAV:Reheat, PERIMETER_MID_ZN_3 VAV BOX COMPONENT, Design Size Maximum Reheat Water Flow Rate [m3/s], 4.72394E-003
 Component Sizing Information, AirTerminal:SingleDuct:VAV:Reheat, PERIMETER_MID_ZN_3 VAV BOX COMPONENT, Design Size Reheat Coil Sizing Air Volume Flow Rate [m3/s], 5.38630
 Component Sizing Information, Coil:Heating:Water, PERIMETER_MID_ZN_3 VAV BOX REHEAT COIL, Design Size Design Coil Load [W], 219421.29613
 Component Sizing Information, Coil:Heating:Water, PERIMETER_MID_ZN_3 VAV BOX REHEAT COIL, Design Size Maximum Water Flow Rate [m3/s], 4.72394E-003
 Component Sizing Information, Coil:Heating:Water, PERIMETER_MID_ZN_3 VAV BOX REHEAT COIL, Design Size U-Factor Times Area Value [W/K], 5416.60195
Water Heating Coil Capacity Information,Coil:Heating:Water,PERIMETER_MID_ZN_3 VAV BOX REHEAT COIL,182638.11
 Component Sizing Information, AirTerminal:SingleDuct:VAV:Reheat, PERIMETER_MID_ZN_4 VAV BOX COMPONENT, Design Size Maximum Air Flow Rate [m3/s], 19.02630
 Component Sizing Information, AirTerminal:SingleDuct:VAV:Reheat, PERIMETER_MID_ZN_4 VAV BOX COMPONENT, Design Size Maximum Flow per Zone Floor Area during Reheat [m3/s-m2], 2.82604E-003
 Component Sizing Information, AirTerminal:SingleDuct:VAV:Reheat, PERIMETER_MID_ZN_4 VAV BOX COMPONENT, Design Size Maximum Flow Fraction during Reheat [], 0.30000
 Component Sizing Information, AirTerminal:SingleDuct:VAV:Reheat, PERIMETER_MID_ZN_4 VAV BOX COMPONENT, Design Size Maximum Reheat Water Flow Rate [m3/s], 3.43959E-003
 Component Sizing Information, AirTerminal:SingleDuct:VAV:Reheat, PERIMETER_MID_ZN_4 VAV BOX COMPONENT, Design Size Reheat Coil Sizing Air Volume Flow Rate [m3/s], 5.70789
 Component Sizing Information, Coil:Heating:Water, PERIMETER_MID_ZN_4 VAV BOX REHEAT COIL, Design Size Design Coil Load [W], 159764.62135
 Component Sizing Information, Coil:Heating:Water, PERIMETER_MID_ZN_4 VAV BOX REHEAT COIL, Design Size Maximum Water Flow Rate [m3/s], 3.43959E-003
 Component Sizing Information, Coil:Heating:Water, PERIMETER_MID_ZN_4 VAV BOX REHEAT COIL, Design Size U-Factor Times Area Value [W/K], 3451.44684
Water Heating Coil Capacity Information,Coil:Heating:Water,PERIMETER_MID_ZN_4 VAV BOX REHEAT COIL,159906.77
 Component Sizing Information, AirTerminal:SingleDuct:VAV:Reheat, PERIMETER_TOP_ZN_1 VAV BOX COMPONENT, Design Size Maximum Air Flow Rate [m3/s], 1.35989
 Component Sizing Information, AirTerminal:SingleDuct:VAV:Reheat, PERIMETER_TOP_ZN_1 VAV BOX COMPONENT, Design Size Maximum Flow per Zone Floor Area during Reheat [m3/s-m2], 2.03200E-003
 Component Sizing Information, AirTerminal:SingleDuct:VAV:Reheat, PERIMETER_TOP_ZN_1 VAV BOX COMPONENT, Design Size Maximum Flow Fraction during Reheat [], 0.46832
 Component Sizing Information, AirTerminal:SingleDuct:VAV:Reheat, PERIMETER_TOP_ZN_1 VAV BOX COMPONENT, Design Size Maximum Reheat Water Flow Rate [m3/s], 7.61106E-004
 Component Sizing Information, AirTerminal:SingleDuct:VAV:Reheat, PERIMETER_TOP_ZN_1 VAV BOX COMPONENT, Design Size Reheat Coil Sizing Air Volume Flow Rate [m3/s], 0.86775
 Component Sizing Information, Coil:Heating:Water, PERIMETER_TOP_ZN_1 VAV BOX REHEAT COIL, Design Size Design Coil Load [W], 35352.44191
 Component Sizing Information, Coil:Heating:Water, PERIMETER_TOP_ZN_1 VAV BOX REHEAT COIL, Design Size Maximum Water Flow Rate [m3/s], 7.61106E-004
 Component Sizing Information, Coil:Heating:Water, PERIMETER_TOP_ZN_1 VAV BOX REHEAT COIL, Design Size U-Factor Times Area Value [W/K], 872.74308
Water Heating Coil Capacity Information,Coil:Heating:Water,PERIMETER_TOP_ZN_1 VAV BOX REHEAT COIL,25515.65
 Component Sizing Information, AirTerminal:SingleDuct:VAV:Reheat, PERIMETER_TOP_ZN_2 VAV BOX COMPONENT, Design Size Maximum Air Flow Rate [m3/s], 1.61204
 Component Sizing Information, AirTerminal:SingleDuct:VAV:Reheat, PERIMETER_TOP_ZN_2 VAV BOX COMPONENT, Design Size Maximum Flow per Zone Floor Area during Reheat [m3/s-m2], 2.39441E-003
 Component Sizing Information, AirTerminal:SingleDuct:VAV:Reheat, PERIMETER_TOP_ZN_2 VAV BOX COMPONENT, Design Size Maximum Flow Fraction during Reheat [], 0.30000
 Component Sizing Information, AirTerminal:SingleDuct:VAV:Reheat, PERIMETER_TOP_ZN_2 VAV BOX COMPONENT, Design Size Maximum Reheat Water Flow Rate [m3/s], 4.95519E-004
 Component Sizing Information, AirTerminal:SingleDuct:VAV:Reheat, PERIMETER_TOP_ZN_2 VAV BOX COMPONENT, Design Size Reheat Coil Sizing Air Volume Flow Rate [m3/s], 0.56495
 Component Sizing Information, Coil:Heating:Water, PERIMETER_TOP_ZN_2 VAV BOX REHEAT COIL, Design Size Design Coil Load [W], 23016.24423
 Component Sizing Information, Coil:Heating:Water, PERIMETER_TOP_ZN_2 VAV BOX REHEAT COIL, Design Size Maximum Water Flow Rate [m3/s], 4.95519E-004
 Component Sizing Information, Coil:Heating:Water, PERIMETER_TOP_ZN_2 VAV BOX REHEAT COIL, Design Size U-Factor Times Area Value [W/K], 568.19927
Water Heating Coil Capacity Information,Coil:Heating:Water,PERIMETER_TOP_ZN_2 VAV BOX REHEAT COIL,21892.84
 Component Sizing Information, AirTerminal:SingleDuct:VAV:Reheat, PERIMETER_TOP_ZN_3 VAV BOX COMPONENT, Design Size Maximum Air Flow Rate [m3/s], 1.18705
 Component Sizing Information, AirTerminal:SingleDuct:VAV:Reheat, PERIMETER_TOP_ZN_3 VAV BOX COMPONENT, Design Size Maximum Flow per Zone Floor Area during Reheat [m3/s-m2], 2.03200E-003
 Component Sizing Information, AirTerminal:SingleDuct:VAV:Reheat, PERIMETER_TOP_ZN_3 VAV BOX COMPONENT, Design Size Maximum Flow Fraction during Reheat [], 0.53650
 Component Sizing Information, AirTerminal:SingleDuct:VAV:Reheat, PERIMETER_TOP_ZN_3 VAV BOX COMPONENT, Design Size Maximum Reheat Water Flow Rate [m3/s], 7.58187E-004
 Component Sizing Information, AirTerminal:SingleDuct:VAV:Reheat, PERIMETER_TOP_ZN_3 VAV BOX COMPONENT, Design Size Reheat Coil Sizing Air Volume Flow Rate [m3/s], 0.86442
 Component Sizing Information, Coil:Heating:Water, PERIMETER_TOP_ZN_3 VAV BOX REHEAT COIL, Design Size Design Coil Load [W], 35216.82564
 Component Sizing Information, Coil:Heating:Water, PERIMETER_TOP_ZN_3 VAV BOX REHEAT COIL, Design Size Maximum Water Flow Rate [m3/s], 7.58187E-004
 Component Sizing Information, Coil:Heating:Water, PERIMETER_TOP_ZN_3 VAV BOX REHEAT COIL, Design Size U-Factor Times Area Value [W/K], 869.39488
Water Heating Coil Capacity Information,Coil:Heating:Water,PERIMETER_TOP_ZN_3 VAV BOX REHEAT COIL,23450.37
 Component Sizing Information, AirTerminal:SingleDuct:VAV:Reheat, PERIMETER_TOP_ZN_4 VAV BOX COMPONENT, Design Size Maximum Air Flow Rate [m3/s], 1.96596
 Component Sizing Information, AirTerminal:SingleDuct:VAV:Reheat, PERIMETER_TOP_ZN_4 VAV BOX COMPONENT, Design Size Maximum Flow per Zone Floor Area during Reheat [m3/s-m2], 2.92011E-003
 Component Sizing Information, AirTerminal:SingleDuct:VAV:Reheat, PERIMETER_TOP_ZN_4 VAV BOX COMPONENT, Design Size Maximum Flow Fraction during Reheat [], 0.30000
 Component Sizing Information, AirTerminal:SingleDuct:VAV:Reheat, PERIMETER_TOP_ZN_4 VAV BOX COMPONENT, Design Size Maximum Reheat Water Flow Rate [m3/s], 5.05748E-004
 Component Sizing Information, AirTerminal:SingleDuct:VAV:Reheat, PERIMETER_TOP_ZN_4 VAV BOX COMPONENT, Design Size Reheat Coil Sizing Air Volume Flow Rate [m3/s], 0.58979
 Component Sizing Information, Coil:Heating:Water, PERIMETER_TOP_ZN_4 VAV BOX REHEAT COIL, Design Size Design Coil Load [W], 23491.37845
 Component Sizing Information, Coil:Heating:Water, PERIMETER_TOP_ZN_4 VAV BOX REHEAT COIL, Design Size Maximum Water Flow Rate [m3/s], 5.05748E-004
 Component Sizing Information, Coil:Heating:Water, PERIMETER_TOP_ZN_4 VAV BOX REHEAT COIL, Design Size U-Factor Times Area Value [W/K], 573.62655
Water Heating Coil Capacity Information,Coil:Heating:Water,PERIMETER_TOP_ZN_4 VAV BOX REHEAT COIL,23503.17
 Component Sizing Information, Branch, VAV_1 AIR LOOP MAIN BRANCH, Maximum Flow Rate [m3/s], 11.27686
 Component Sizing Information, AirLoopHVAC, VAV_1, Design Supply Air Flow Rate [m3/s], 11.27686
 Component Sizing Information, Branch, VAV_2 AIR LOOP MAIN BRANCH, Maximum Flow Rate [m3/s], 118.52261
 Component Sizing Information, AirLoopHVAC, VAV_2, Design Supply Air Flow Rate [m3/s], 118.52261
 Component Sizing Information, Branch, VAV_3 AIR LOOP MAIN BRANCH, Maximum Flow Rate [m3/s], 12.95051
 Component Sizing Information, AirLoopHVAC, VAV_3, Design Supply Air Flow Rate [m3/s], 12.95051
 Component Sizing Information, Branch, VAV_5 AIR LOOP MAIN BRANCH, Maximum Flow Rate [m3/s], 4.44043
 Component Sizing Information, AirLoopHVAC, VAV_5, Design Supply Air Flow Rate [m3/s], 4.44043
 Component Sizing Information, Controller:OutdoorAir, VAV_1_OA_CONTROLLER, Maximum Outdoor Air Flow Rate [m3/s], 11.27686
 Component Sizing Information, Controller:OutdoorAir, VAV_1_OA_CONTROLLER, Minimum Outdoor Air Flow Rate [m3/s], 2.39714
 Component Sizing Information, Coil:Cooling:Water, VAV_1_COOLC, Design Size Design Coil Load [W], 249313.63448
 Component Sizing Information, Coil:Cooling:Water, VAV_1_COOLC, Design Size Design Water Flow Rate [m3/s], 8.90476E-003
 Component Sizing Information, Coil:Cooling:Water, VAV_1_COOLC, Design Size Design Air Flow Rate [m3/s], 11.27686
 Component Sizing Information, Coil:Cooling:Water, VAV_1_COOLC, Design Size Design Inlet Air Temperature [C], 24.88328
 Component Sizing Information, Coil:Cooling:Water, VAV_1_COOLC, Design Size Design Inlet Water Temperature [C], 6.67000
 Component Sizing Information, Coil:Cooling:Water, VAV_1_COOLC, Design Size Design Outlet Air Temperature [C], 12.80000
 Component Sizing Information, Coil:Cooling:Water, VAV_1_COOLC, Design Size Design Inlet Air Humidity Ratio, 1.10141E-002
 Component Sizing Information, Coil:Cooling:Water, VAV_1_COOLC, Design Size Design Outlet Air Humidity Ratio, 8.50000E-003
! <Water Cooling Coil Capacity Information>,Component Type,Name,Nominal Total Capacity {W},Nominal Sensible Capacity {W},Nominal Latent Capacity {W},Nominal Sensible Heat Ratio, Nominal Coil UA Value {W/C}, Nominal Coil Surface Area {m2}
Water Cooling Coil Capacity Information,Coil:Cooling:Water,VAV_1_COOLC,272413.74,190178.10,82235.64,0.70,30152.03,305.82
 Component Sizing Information, Coil:Heating:Water, VAV_1_HEATC, Design Size Design Coil Load [W], 100992.46413
 Component Sizing Information, Coil:Heating:Water, VAV_1_HEATC, Design Size Maximum Water Flow Rate [m3/s], 2.17428E-003
 Component Sizing Information, Coil:Heating:Water, VAV_1_HEATC, Design Size U-Factor Times Area Value [W/K], 1436.48422
Water Heating Coil Capacity Information,Coil:Heating:Water,VAV_1_HEATC,73126.76
 Component Sizing Information, Fan:VariableVolume, VAV_1_FAN, Design Size Maximum Flow Rate [m3/s], 11.27686
 Component Sizing Information, Controller:WaterCoil, VAV_1_COOLC_CONTROLLER, Maximum Actuated Flow [m3/s], 8.90476E-003
 Component Sizing Information, Controller:WaterCoil, VAV_1_COOLC_CONTROLLER, Controller Convergence Tolerance, 5.34760E-005
 Component Sizing Information, Controller:WaterCoil, VAV_1_HEATC_CONTROLLER, Maximum Actuated Flow [m3/s], 2.17428E-003
 Component Sizing Information, Controller:OutdoorAir, VAV_2_OA_CONTROLLER, Maximum Outdoor Air Flow Rate [m3/s], 118.52261
 Component Sizing Information, Controller:OutdoorAir, VAV_2_OA_CONTROLLER, Minimum Outdoor Air Flow Rate [m3/s], 23.97138
 Component Sizing Information, Coil:Cooling:Water, VAV_2_COOLC, Design Size Design Coil Load [W], 2583366.23813
 Component Sizing Information, Coil:Cooling:Water, VAV_2_COOLC, Design Size Design Water Flow Rate [m3/s], 9.22703E-002
 Component Sizing Information, Coil:Cooling:Water, VAV_2_COOLC, Design Size Design Air Flow Rate [m3/s], 118.52261
 Component Sizing Information, Coil:Cooling:Water, VAV_2_COOLC, Design Size Design Inlet Air Temperature [C], 24.88247
 Component Sizing Information, Coil:Cooling:Water, VAV_2_COOLC, Design Size Design Inlet Water Temperature [C], 6.67000
 Component Sizing Information, Coil:Cooling:Water, VAV_2_COOLC, Design Size Design Outlet Air Temperature [C], 12.80000
 Component Sizing Information, Coil:Cooling:Water, VAV_2_COOLC, Design Size Design Inlet Air Humidity Ratio, 1.09107E-002
 Component Sizing Information, Coil:Cooling:Water, VAV_2_COOLC, Design Size Design Outlet Air Humidity Ratio, 8.50000E-003
Water Cooling Coil Capacity Information,Coil:Cooling:Water,VAV_2_COOLC,2843322.12,1989782.34,853539.79,0.70,314760.65,3192.48
 Component Sizing Information, Coil:Heating:Water, VAV_2_HEATC, Design Size Design Coil Load [W], 1001131.94298
 Component Sizing Information, Coil:Heating:Water, VAV_2_HEATC, Design Size Maximum Water Flow Rate [m3/s], 2.15535E-002
 Component Sizing Information, Coil:Heating:Water, VAV_2_HEATC, Design Size U-Factor Times Area Value [W/K], 14388.06275
Water Heating Coil Capacity Information,Coil:Heating:Water,VAV_2_HEATC,736438.59
 Component Sizing Information, Fan:VariableVolume, VAV_2_FAN, Design Size Maximum Flow Rate [m3/s], 118.52261
 Component Sizing Information, Controller:WaterCoil, VAV_2_COOLC_CONTROLLER, Maximum Actuated Flow [m3/s], 9.22703E-002
 Component Sizing Information, Controller:WaterCoil, VAV_2_COOLC_CONTROLLER, Controller Convergence Tolerance, 5.16082E-006
 Component Sizing Information, Controller:WaterCoil, VAV_2_HEATC_CONTROLLER, Maximum Actuated Flow [m3/s], 2.15535E-002
 Component Sizing Information, Controller:OutdoorAir, VAV_3_OA_CONTROLLER, Maximum Outdoor Air Flow Rate [m3/s], 12.95051
 Component Sizing Information, Controller:OutdoorAir, VAV_3_OA_CONTROLLER, Minimum Outdoor Air Flow Rate [m3/s], 2.39714
 Component Sizing Information, Coil:Cooling:Water, VAV_3_COOLC, Design Size Design Coil Load [W], 272666.25559
 Component Sizing Information, Coil:Cooling:Water, VAV_3_COOLC, Design Size Design Water Flow Rate [m3/s], 9.73884E-003
 Component Sizing Information, Coil:Cooling:Water, VAV_3_COOLC, Design Size Design Air Flow Rate [m3/s], 12.95051
 Component Sizing Information, Coil:Cooling:Water, VAV_3_COOLC, Design Size Design Inlet Air Temperature [C], 24.76039
 Component Sizing Information, Coil:Cooling:Water, VAV_3_COOLC, Design Size Design Inlet Water Temperature [C], 6.67000
 Component Sizing Information, Coil:Cooling:Water, VAV_3_COOLC, Design Size Design Outlet Air Temperature [C], 12.80000
 Component Sizing Information, Coil:Cooling:Water, VAV_3_COOLC, Design Size Design Inlet Air Humidity Ratio, 1.07129E-002
 Component Sizing Information, Coil:Cooling:Water, VAV_3_COOLC, Design Size Design Outlet Air Humidity Ratio, 8.50000E-003
Water Cooling Coil Capacity Information,Coil:Cooling:Water,VAV_3_COOLC,305587.01,215113.51,90473.50,0.70,33889.32,343.72
 Component Sizing Information, Coil:Heating:Water, VAV_3_HEATC, Design Size Design Coil Load [W], 98435.34456
 Component Sizing Information, Coil:Heating:Water, VAV_3_HEATC, Design Size Maximum Water Flow Rate [m3/s], 2.11922E-003
 Component Sizing Information, Coil:Heating:Water, VAV_3_HEATC, Design Size U-Factor Times Area Value [W/K], 1440.11698
Water Heating Coil Capacity Information,Coil:Heating:Water,VAV_3_HEATC,74378.48
 Component Sizing Information, Fan:VariableVolume, VAV_3_FAN, Design Size Maximum Flow Rate [m3/s], 12.95051
 Component Sizing Information, Controller:WaterCoil, VAV_3_COOLC_CONTROLLER, Maximum Actuated Flow [m3/s], 9.73884E-003
 Component Sizing Information, Controller:WaterCoil, VAV_3_COOLC_CONTROLLER, Controller Convergence Tolerance, 4.88960E-005
 Component Sizing Information, Controller:WaterCoil, VAV_3_HEATC_CONTROLLER, Maximum Actuated Flow [m3/s], 2.11922E-003
 Component Sizing Information, Controller:OutdoorAir, VAV_5_OA_CONTROLLER, Maximum Outdoor Air Flow Rate [m3/s], 4.44043
 Component Sizing Information, Controller:OutdoorAir, VAV_5_OA_CONTROLLER, Minimum Outdoor Air Flow Rate [m3/s], 1.19857
 Component Sizing Information, Coil:Cooling:Water, VAV_5_COOLC, Design Size Design Coil Load [W], 106004.56670
 Component Sizing Information, Coil:Cooling:Water, VAV_5_COOLC, Design Size Design Water Flow Rate [m3/s], 3.78617E-003
 Component Sizing Information, Coil:Cooling:Water, VAV_5_COOLC, Design Size Design Air Flow Rate [m3/s], 4.44043
 Component Sizing Information, Coil:Cooling:Water, VAV_5_COOLC, Design Size Design Inlet Air Temperature [C], 24.81638
 Component Sizing Information, Coil:Cooling:Water, VAV_5_COOLC, Design Size Design Inlet Water Temperature [C], 6.67000
 Component Sizing Information, Coil:Cooling:Water, VAV_5_COOLC, Design Size Design Outlet Air Temperature [C], 12.80000
 Component Sizing Information, Coil:Cooling:Water, VAV_5_COOLC, Design Size Design Inlet Air Humidity Ratio, 1.16281E-002
 Component Sizing Information, Coil:Cooling:Water, VAV_5_COOLC, Design Size Design Outlet Air Humidity Ratio, 8.50000E-003
Water Cooling Coil Capacity Information,Coil:Cooling:Water,VAV_5_COOLC,111249.38,76702.92,34546.46,0.69,12316.28,124.92
 Component Sizing Information, Coil:Heating:Water, VAV_5_HEATC, Design Size Design Coil Load [W], 52327.00589
 Component Sizing Information, Coil:Heating:Water, VAV_5_HEATC, Design Size Maximum Water Flow Rate [m3/s], 1.12655E-003
 Component Sizing Information, Coil:Heating:Water, VAV_5_HEATC, Design Size U-Factor Times Area Value [W/K], 705.40395
Water Heating Coil Capacity Information,Coil:Heating:Water,VAV_5_HEATC,34856.53
 Component Sizing Information, Fan:VariableVolume, VAV_5_FAN, Design Size Maximum Flow Rate [m3/s], 4.44043
 Component Sizing Information, Controller:WaterCoil, VAV_5_COOLC_CONTROLLER, Maximum Actuated Flow [m3/s], 3.78617E-003
 Component Sizing Information, Controller:WaterCoil, VAV_5_COOLC_CONTROLLER, Controller Convergence Tolerance, 1.25771E-004
 Component Sizing Information, Controller:WaterCoil, VAV_5_HEATC_CONTROLLER, Maximum Actuated Flow [m3/s], 1.12655E-003
 Component Sizing Information, Chiller:Electric:ReformulatedEIR, COOLSYS1 CHILLER 1, Reference Chilled Water Flow Rate [m3/s], 5.73500E-002
 Component Sizing Information, Chiller:Electric:ReformulatedEIR, COOLSYS1 CHILLER 1, Reference Capacity [W], 1607275.98511
 Component Sizing Information, Chiller:Electric:ReformulatedEIR, COOLSYS1 CHILLER 1, Reference Condenser Water Flow Rate [m3/s], 8.04440E-002
! <Chiller Standard Rating Information>, Component Type, Component Name, IPLV in SI Units {W/W}, IPLV in IP Units {Btu/W-h}
 Chiller Standard Rating Information, Chiller:Electric:ReformulatedEIR, COOLSYS1 CHILLER 1, 7.81, 26.66
 Component Sizing Information, Chiller:Electric:ReformulatedEIR, COOLSYS1 CHILLER 2, Reference Chilled Water Flow Rate [m3/s], 5.73500E-002
 Component Sizing Information, Chiller:Electric:ReformulatedEIR, COOLSYS1 CHILLER 2, Reference Capacity [W], 1607275.98511
 Component Sizing Information, Chiller:Electric:ReformulatedEIR, COOLSYS1 CHILLER 2, Reference Condenser Water Flow Rate [m3/s], 8.04440E-002
 Chiller Standard Rating Information, Chiller:Electric:ReformulatedEIR, COOLSYS1 CHILLER 2, 7.81, 26.66
 Component Sizing Information, PlantLoop, COOLSYS1, Maximum Loop Flow Rate [m3/s], 0.11470
 Component Sizing Information, PlantLoop, COOLSYS1, Plant Loop Volume [m3], 43.01253
 Component Sizing Information, Boiler:HotWater, HEATSYS1 BOILER, Nominal Capacity [W], 2275078.75025
 Component Sizing Information, Boiler:HotWater, HEATSYS1 BOILER, Design Water Flow Rate [m3/s], 4.87901E-002
 Component Sizing Information, PlantLoop, HEATSYS1, Maximum Loop Flow Rate [m3/s], 4.87901E-002
 Component Sizing Information, PlantLoop, HEATSYS1, Plant Loop Volume [m3], 18.29630
 Component Sizing Information, PlantLoop, SWHSYS1, Maximum Loop Flow Rate [m3/s], 2.68800E-004
 Component Sizing Information, PlantLoop, SWHSYS1, Plant Loop Volume [m3], 0.10080
 Component Sizing Information, WaterHeater:Mixed, SWHSYS1 WATER HEATER, Use Side Design Flow Rate [m3/s], 2.68800E-004
Water Heater Information,WaterHeater:Mixed,SWHSYS1 WATER HEATER,0.7571,845000.0,0.903,0.5929
 Component Sizing Information, CoolingTower:SingleSpeed, TOWERWATERSYS COOLTOWER, Design Water Flow Rate [m3/s], 0.16089
 Component Sizing Information, CoolingTower:SingleSpeed, TOWERWATERSYS COOLTOWER, Fan Power at Design Air Flow Rate [W], 39538.54018
 Component Sizing Information, CoolingTower:SingleSpeed, TOWERWATERSYS COOLTOWER, Design Air Flow Rate [m3/s], 106.19660
 Component Sizing Information, CoolingTower:SingleSpeed, TOWERWATERSYS COOLTOWER, U-Factor Times Area Value at Design Air Flow Rate [W/C], 228677.01998
 Component Sizing Information, CoolingTower:SingleSpeed, TOWERWATERSYS COOLTOWER, Free Convection Regime Air Flow Rate [m3/s], 10.61966
 Component Sizing Information, CoolingTower:SingleSpeed, TOWERWATERSYS COOLTOWER, Free Convection U-Factor Times Area Value [W/K], 22867.70200
 Component Sizing Information, CondenserLoop, TOWERWATERSYS, Maximum Loop Flow Rate [m3/s], 0.16089
 Component Sizing Information, CondenserLoop, TOWERWATERSYS, Condenser Loop Volume [m3], 60.33302
 Component Sizing Information, Pump:VariableSpeed, COOLSYS1 PUMP, Rated Flow Rate [m3/s], 0.11470
 Component Sizing Information, Pump:VariableSpeed, COOLSYS1 PUMP, Rated Power Consumption [W], 29304.40307
 Component Sizing Information, Pump:VariableSpeed, HEATSYS1 PUMP, Rated Flow Rate [m3/s], 4.87901E-002
 Component Sizing Information, Pump:VariableSpeed, HEATSYS1 PUMP, Rated Power Consumption [W], 12821.40333
 Component Sizing Information, Pump:VariableSpeed, SWHSYS1 PUMP, Rated Flow Rate [m3/s], 2.68800E-004
 Component Sizing Information, Pump:VariableSpeed, SWHSYS1 PUMP, Rated Power Consumption [W], 72.71466
 Component Sizing Information, Pump:ConstantSpeed, TOWERWATERSYS PUMP, Rated Flow Rate [m3/s], 0.16089
 Component Sizing Information, Pump:ConstantSpeed, TOWERWATERSYS PUMP, Rated Power Consumption [W], 42522.24247
! <Environment>,Environment Name,Environment Type, Start Date, End Date, Start DayOfWeek, Duration {#days}, Source:Start DayOfWeek,  Use Daylight Saving, Use Holidays, Apply Weekend Holiday Rule,  Use Rain Values, Use Snow Values
! <Environment:Special Days>, Special Day Name, Special Day Type, Source, Start Date, Duration {#days}
! <Environment:Daylight Saving>, Daylight Saving Indicator, Source, Start Date, End Date
! <Environment:WarmupDays>, NumberofWarmupDays
Environment,587017 587017 587017 TMY2 WMO#=587017,WeatherFileRunPeriod,07/01,07/31,Thursday,31,Use RunPeriod Specified Day,No ,No ,Yes,Yes,Yes
Environment:Daylight Saving,Yes,InputFile,03/14,11/07
Environment:Special Days,NEW YEARS DAY,Holiday,InputFile,01/01,  1
Environment:Special Days,VETERANS DAY,Holiday,InputFile,11/11,  1
Environment:Special Days,CHRISTMAS,Holiday,InputFile,12/25,  1
Environment:Special Days,INDEPENDENCE DAY,Holiday,InputFile,07/05,  1
Environment:Special Days,MLK DAY,Holiday,InputFile,01/18,  1
Environment:Special Days,PRESIDENTS DAY,Holiday,InputFile,02/15,  1
Environment:Special Days,MEMORIAL DAY,Holiday,InputFile,05/31,  1
Environment:Special Days,LABOR DAY,Holiday,InputFile,09/06,  1
Environment:Special Days,COLUMBUS DAY,Holiday,InputFile,10/11,  1
Environment:Special Days,THANKSGIVING,Holiday,InputFile,11/25,  1
Environment:WarmupDays,  6
